6M2N-1_ligand1
 OpenBabel04052409413D

 29 31  0  0  0  0  0  0  0  0999 V2000
   13.3890   -1.6860   24.5610 C   0  0  0  0  0  0  0  0  0  0  0  0
   14.4050   -2.0810   25.4520 C   0  0  0  0  0  0  0  0  0  0  0  0
   11.0490   -1.9810   23.6430 C   0  0  0  0  0  0  0  0  0  0  0  0
   10.9810   -0.7790   23.0300 C   0  0  0  0  0  0  0  0  0  0  0  0
    9.8770   -0.4370   22.1260 C   0  0  0  0  0  0  0  0  0  0  0  0
    7.8550   -1.4000   20.8920 C   0  0  0  0  0  0  0  0  0  0  0  0
    8.1860   -3.8190   22.3050 C   0  0  0  0  0  0  0  0  0  0  0  0
    9.7830    0.6960   21.6510 O   0  0  0  0  0  0  0  0  0  0  0  0
    8.9090   -1.5280   21.8370 C   0  0  0  0  0  0  0  0  0  0  0  0
    9.0750   -2.7510   22.5300 C   0  0  0  0  0  0  0  0  0  0  0  0
    7.1510   -3.6970   21.3630 C   0  0  0  0  0  0  0  0  0  0  0  0
    6.3240   -4.7570   21.1220 O   0  5  0  0  0  0  0  0  0  0  0  0
    6.9980   -2.4950   20.6450 C   0  0  0  0  0  0  0  0  0  0  0  0
    6.0420   -2.4300   19.6760 O   0  0  0  0  0  0  0  0  0  0  0  0
    7.6570   -0.2410   20.1900 O   0  0  0  0  0  0  0  0  0  0  0  0
   10.0960   -2.9510   23.4290 O   0  0  0  0  0  0  0  0  0  0  0  0
   12.1500   -2.3680   24.5480 C   0  0  0  0  0  0  0  0  0  0  0  0
   11.9450   -3.4400   25.4460 C   0  0  0  0  0  0  0  0  0  0  0  0
   12.9620   -3.8230   26.3400 C   0  0  0  0  0  0  0  0  0  0  0  0
   14.1970   -3.1520   26.3370 C   0  0  0  0  0  0  0  0  0  0  0  0
   13.5860   -0.8650   23.8870 H   0  0  0  0  0  0  0  0  0  0  0  0
   15.3490   -1.5600   25.4580 H   0  0  0  0  0  0  0  0  0  0  0  0
   11.7230   -0.0160   23.1990 H   0  0  0  0  0  0  0  0  0  0  0  0
    8.3180   -4.7470   22.8430 H   0  0  0  0  0  0  0  0  0  0  0  0
    5.6390   -3.2800   19.5860 H   0  0  0  0  0  0  0  0  0  0  0  0
    8.2390    0.4500   20.4730 H   0  0  0  0  0  0  0  0  0  0  0  0
   11.0050   -3.9720   25.4680 H   0  0  0  0  0  0  0  0  0  0  0  0
   12.7830   -4.6300   27.0300 H   0  0  0  0  0  0  0  0  0  0  0  0
   14.9790   -3.4510   27.0190 H   0  0  0  0  0  0  0  0  0  0  0  0
  1  2  2  0  0  0  0
  1 17  1  0  0  0  0
  1 21  1  0  0  0  0
  2 20  1  0  0  0  0
  2 22  1  0  0  0  0
  3  4  2  0  0  0  0
  3 16  1  0  0  0  0
  3 17  1  0  0  0  0
  4  5  1  0  0  0  0
  4 23  1  0  0  0  0
  5  8  2  0  0  0  0
  5  9  1  0  0  0  0
  6  9  2  0  0  0  0
  6 13  1  0  0  0  0
  6 15  1  0  0  0  0
  7 10  2  0  0  0  0
  7 11  1  0  0  0  0
  7 24  1  0  0  0  0
  9 10  1  0  0  0  0
 10 16  1  0  0  0  0
 11 12  1  0  0  0  0
 11 13  2  0  0  0  0
 13 14  1  0  0  0  0
 14 25  1  0  0  0  0
 15 26  1  0  0  0  0
 17 18  2  0  0  0  0
 18 19  1  0  0  0  0
 18 27  1  0  0  0  0
 19 20  2  0  0  0  0
 19 28  1  0  0  0  0
 20 29  1  0  0  0  0
M  CHG  1  12  -1
M  END
$$$$
