6W63_ligand1
 OpenBabel04052409413D

 67 70  0  0  1  0  0  0  0  0999 V2000
    6.5158   -2.3043   22.0104 C   0  0  0  0  0  0  0  0  0  0  0  0
    7.0832    0.1019   21.8691 C   0  0  1  0  0  0  0  0  0  0  0  0
    8.2373    1.1325   21.8809 C   0  0  0  0  0  0  0  0  0  0  0  0
    9.2249    3.0528   23.0765 C   0  0  0  0  0  0  0  0  0  0  0  0
    8.6527    4.4520   23.3522 C   0  0  0  0  0  0  0  0  0  0  0  0
    9.7825    5.4415   23.6783 C   0  0  0  0  0  0  0  0  0  0  0  0
   10.6423    4.9436   24.8537 C   0  0  0  0  0  0  0  0  0  0  0  0
   11.2001    3.5344   24.5865 C   0  0  0  0  0  0  0  0  0  0  0  0
   10.0750    2.5448   24.2552 C   0  0  0  0  0  0  0  0  0  0  0  0
    6.5147    0.2866   20.5050 C   0  0  0  0  0  0  0  0  0  0  0  0
    5.2917    0.9655   20.3526 C   0  0  0  0  0  0  0  0  0  0  0  0
    4.7091    1.0495   19.0894 C   0  0  0  0  0  0  0  0  0  0  0  0
    5.4071    0.5277   17.9861 C   0  0  0  0  0  0  0  0  0  0  0  0
    7.1149   -0.2196   19.3264 C   0  0  0  0  0  0  0  0  0  0  0  0
    8.6971   -1.5250   22.7724 C   0  0  0  0  0  0  0  0  0  0  0  0
    8.7998   -1.2482   24.1476 C   0  0  0  0  0  0  0  0  0  0  0  0
   10.0430   -1.3554   24.7870 C   0  0  0  0  0  0  0  0  0  0  0  0
   11.2062   -1.7154   24.0661 C   0  0  0  0  0  0  0  0  0  0  0  0
   12.5418   -1.8261   24.8150 C   0  0  0  0  0  0  0  0  0  0  0  0
   12.8257   -0.5291   25.6016 C   0  0  0  0  0  0  0  0  0  0  0  0
   13.7423   -2.0577   23.8738 C   0  0  0  0  0  0  0  0  0  0  0  0
   12.4566   -3.0059   25.8016 C   0  0  0  0  0  0  0  0  0  0  0  0
   11.0845   -1.9862   22.6790 C   0  0  0  0  0  0  0  0  0  0  0  0
    9.8370   -1.8980   22.0386 C   0  0  0  0  0  0  0  0  0  0  0  0
    6.8508   -3.7481   22.2568 C   0  0  0  0  0  0  0  0  0  0  0  0
    7.7621   -4.3220   23.1199 C   0  0  0  0  0  0  0  0  0  0  0  0
    6.5823   -5.8918   22.1597 C   0  0  0  0  0  0  0  0  0  0  0  0
    7.4575   -1.3197   22.1226 N   0  0  0  0  0  0  0  0  0  0  0  0
    8.1538    2.1084   22.7927 N   0  0  0  0  0  0  0  0  0  0  0  0
    6.5945   -0.0904   18.0925 N   0  0  0  0  0  0  0  0  0  0  0  0
    7.5735   -5.6886   23.0233 N   0  0  0  0  0  0  0  0  0  0  0  0
    6.0971   -4.7671   21.6562 N   0  0  0  0  0  0  0  0  0  0  0  0
    5.3556   -2.0529   21.6986 O   0  0  0  0  0  0  0  0  0  0  0  0
    9.1842    1.0301   21.1010 O   0  0  0  0  0  0  0  0  0  0  0  0
    6.3546    0.3826   22.6306 H   0  0  0  0  0  0  0  0  0  0  0  0
    9.8801    3.1317   22.2111 H   0  0  0  0  0  0  0  0  0  0  0  0
    7.9477    4.4109   24.1831 H   0  0  0  0  0  0  0  0  0  0  0  0
    8.0932    4.8033   22.4834 H   0  0  0  0  0  0  0  0  0  0  0  0
    9.3655    6.4228   23.9055 H   0  0  0  0  0  0  0  0  0  0  0  0
   10.4099    5.5694   22.7971 H   0  0  0  0  0  0  0  0  0  0  0  0
   10.0417    4.9329   25.7644 H   0  0  0  0  0  0  0  0  0  0  0  0
   11.4636    5.6383   25.0315 H   0  0  0  0  0  0  0  0  0  0  0  0
   11.7599    3.1750   25.4475 H   0  0  0  0  0  0  0  0  0  0  0  0
   11.9059    3.5705   23.7577 H   0  0  0  0  0  0  0  0  0  0  0  0
   10.5062    1.5716   24.0153 H   0  0  0  0  0  0  0  0  0  0  0  0
    9.4454    2.3970   25.1345 H   0  0  0  0  0  0  0  0  0  0  0  0
    4.7827    1.3857   21.2063 H   0  0  0  0  0  0  0  0  0  0  0  0
    3.7426    1.5159   18.9826 H   0  0  0  0  0  0  0  0  0  0  0  0
    4.9914    0.6008   16.9958 H   0  0  0  0  0  0  0  0  0  0  0  0
    8.0511   -0.7502   19.3789 H   0  0  0  0  0  0  0  0  0  0  0  0
    7.9299   -0.9434   24.7107 H   0  0  0  0  0  0  0  0  0  0  0  0
   10.0921   -1.1508   25.8437 H   0  0  0  0  0  0  0  0  0  0  0  0
   13.7701   -0.6021   26.1386 H   0  0  0  0  0  0  0  0  0  0  0  0
   12.8901    0.3348   24.9372 H   0  0  0  0  0  0  0  0  0  0  0  0
   12.0640   -0.3135   26.3495 H   0  0  0  0  0  0  0  0  0  0  0  0
   14.6650   -2.1456   24.4452 H   0  0  0  0  0  0  0  0  0  0  0  0
   13.6460   -2.9768   23.2998 H   0  0  0  0  0  0  0  0  0  0  0  0
   13.8706   -1.2329   23.1703 H   0  0  0  0  0  0  0  0  0  0  0  0
   13.3941   -3.1479   26.3405 H   0  0  0  0  0  0  0  0  0  0  0  0
   11.6748   -2.8524   26.5421 H   0  0  0  0  0  0  0  0  0  0  0  0
   12.2225   -3.9379   25.2887 H   0  0  0  0  0  0  0  0  0  0  0  0
   11.9347   -2.2641   22.0765 H   0  0  0  0  0  0  0  0  0  0  0  0
    9.7566   -2.0816   20.9791 H   0  0  0  0  0  0  0  0  0  0  0  0
    8.4962   -3.9148   23.7985 H   0  0  0  0  0  0  0  0  0  0  0  0
    6.2024   -6.8681   21.9089 H   0  0  0  0  0  0  0  0  0  0  0  0
    7.3367    2.1444   23.3881 H   0  0  0  0  0  0  0  0  0  0  0  0
    8.0803   -6.3932   23.5440 H   0  0  0  0  0  0  0  0  0  0  0  0
  1 25  1  0  0  0  0
  1 28  1  0  0  0  0
  1 33  2  0  0  0  0
  2  3  1  0  0  0  0
  2 10  1  0  0  0  0
  2 28  1  0  0  0  0
  2 35  1  1  0  0  0
  3 29  1  0  0  0  0
  3 34  2  0  0  0  0
  4  5  1  0  0  0  0
  4  9  1  0  0  0  0
  4 29  1  0  0  0  0
  4 36  1  0  0  0  0
  5  6  1  0  0  0  0
  5 37  1  0  0  0  0
  5 38  1  0  0  0  0
  6  7  1  0  0  0  0
  6 39  1  0  0  0  0
  6 40  1  0  0  0  0
  7  8  1  0  0  0  0
  7 41  1  0  0  0  0
  7 42  1  0  0  0  0
  8  9  1  0  0  0  0
  8 43  1  0  0  0  0
  8 44  1  0  0  0  0
  9 45  1  0  0  0  0
  9 46  1  0  0  0  0
 10 11  2  0  0  0  0
 10 14  1  0  0  0  0
 11 12  1  0  0  0  0
 11 47  1  0  0  0  0
 12 13  2  0  0  0  0
 12 48  1  0  0  0  0
 13 30  1  0  0  0  0
 13 49  1  0  0  0  0
 14 30  2  0  0  0  0
 14 50  1  0  0  0  0
 15 16  2  0  0  0  0
 15 24  1  0  0  0  0
 15 28  1  0  0  0  0
 16 17  1  0  0  0  0
 16 51  1  0  0  0  0
 17 18  2  0  0  0  0
 17 52  1  0  0  0  0
 18 19  1  0  0  0  0
 18 23  1  0  0  0  0
 19 20  1  0  0  0  0
 19 21  1  0  0  0  0
 19 22  1  0  0  0  0
 20 53  1  0  0  0  0
 20 54  1  0  0  0  0
 20 55  1  0  0  0  0
 21 56  1  0  0  0  0
 21 57  1  0  0  0  0
 21 58  1  0  0  0  0
 22 59  1  0  0  0  0
 22 60  1  0  0  0  0
 22 61  1  0  0  0  0
 23 24  2  0  0  0  0
 23 62  1  0  0  0  0
 24 63  1  0  0  0  0
 25 26  2  0  0  0  0
 25 32  1  0  0  0  0
 26 31  1  0  0  0  0
 26 64  1  0  0  0  0
 27 31  1  0  0  0  0
 27 32  2  0  0  0  0
 27 65  1  0  0  0  0
 29 66  1  0  0  0  0
 31 67  1  0  0  0  0
M  END
$$$$
