7B5Z_ligand1
 OpenBabel04052409413D

 35 37  0  0  0  0  0  0  0  0999 V2000
   11.2608    0.6011   23.3734 C   0  0  0  0  0  0  0  0  0  0  0  0
   11.9144   -2.2275   22.9524 C   0  0  0  0  0  0  0  0  0  0  0  0
    9.5373    0.1289   21.6745 C   0  0  0  0  0  0  0  0  0  0  0  0
    8.6841   -0.9145   20.9529 C   0  0  0  0  0  0  0  0  0  0  0  0
    5.8282    0.5119   21.5658 C   0  0  0  0  0  0  0  0  0  0  0  0
    5.9637    0.4265   19.1028 C   0  0  0  0  0  0  0  0  0  0  0  0
    4.6459    0.8933   19.0372 C   0  0  0  0  0  0  0  0  0  0  0  0
    3.9409    1.2209   20.2178 C   0  0  0  0  0  0  0  0  0  0  0  0
    4.5334    1.0467   21.4806 C   0  0  0  0  0  0  0  0  0  0  0  0
    6.5144    0.2142   20.3776 C   0  0  0  0  0  0  0  0  0  0  0  0
   10.4743   -1.7076   23.0824 C   0  0  0  0  0  0  0  0  0  0  0  0
   10.3734   -0.3074   22.6384 N   0  0  0  0  0  0  0  0  0  0  0  0
    7.7241   -0.3403   20.0507 N   0  0  0  0  0  0  0  0  0  0  0  0
   12.7166    0.1602   23.1767 C   0  0  0  0  0  0  0  0  0  0  0  0
    7.9322   -0.3760   18.7069 N   0  0  0  0  0  0  0  0  0  0  0  0
   13.7811   -1.6822   24.5275 C   0  0  0  0  0  0  0  0  0  0  0  0
   12.8905   -1.2809   23.6073 C   0  0  0  0  0  0  0  0  0  0  0  0
    6.8674    0.0765   18.1214 N   0  0  0  0  0  0  0  0  0  0  0  0
    9.4546    1.3153   21.3496 O   0  0  0  0  0  0  0  0  0  0  0  0
   11.0035    0.5653   24.4309 H   0  0  0  0  0  0  0  0  0  0  0  0
   11.1555    1.6455   23.0739 H   0  0  0  0  0  0  0  0  0  0  0  0
   12.1806   -2.3326   21.9004 H   0  0  0  0  0  0  0  0  0  0  0  0
   11.9982   -3.2107   23.4093 H   0  0  0  0  0  0  0  0  0  0  0  0
    8.1113   -1.4914   21.6768 H   0  0  0  0  0  0  0  0  0  0  0  0
    9.3259   -1.6033   20.4145 H   0  0  0  0  0  0  0  0  0  0  0  0
    6.2849    0.3250   22.5230 H   0  0  0  0  0  0  0  0  0  0  0  0
    4.1858    1.0011   18.0661 H   0  0  0  0  0  0  0  0  0  0  0  0
    2.9308    1.5932   20.1586 H   0  0  0  0  0  0  0  0  0  0  0  0
    3.9862    1.2951   22.3789 H   0  0  0  0  0  0  0  0  0  0  0  0
   10.1372   -1.7296   24.1147 H   0  0  0  0  0  0  0  0  0  0  0  0
    9.8300   -2.4123   22.5626 H   0  0  0  0  0  0  0  0  0  0  0  0
   13.3806    0.8090   23.7346 H   0  0  0  0  0  0  0  0  0  0  0  0
   12.9961    0.2401   22.1259 H   0  0  0  0  0  0  0  0  0  0  0  0
   14.4420   -0.9804   25.0097 H   0  0  0  0  0  0  0  0  0  0  0  0
   13.8564   -2.7186   24.8213 H   0  0  0  0  0  0  0  0  0  0  0  0
  1 12  1  0  0  0  0
  1 14  1  0  0  0  0
  1 20  1  0  0  0  0
  1 21  1  0  0  0  0
  2 11  1  0  0  0  0
  2 17  1  0  0  0  0
  2 22  1  0  0  0  0
  2 23  1  0  0  0  0
  3  4  1  0  0  0  0
  3 12  1  0  0  0  0
  3 19  2  0  0  0  0
  4 13  1  0  0  0  0
  4 24  1  0  0  0  0
  4 25  1  0  0  0  0
  5  9  2  0  0  0  0
  5 10  1  0  0  0  0
  5 26  1  0  0  0  0
  6  7  1  0  0  0  0
  6 10  2  0  0  0  0
  6 18  1  0  0  0  0
  7  8  2  0  0  0  0
  7 27  1  0  0  0  0
  8  9  1  0  0  0  0
  8 28  1  0  0  0  0
  9 29  1  0  0  0  0
 10 13  1  0  0  0  0
 11 12  1  0  0  0  0
 11 30  1  0  0  0  0
 11 31  1  0  0  0  0
 13 15  1  0  0  0  0
 14 17  1  0  0  0  0
 14 32  1  0  0  0  0
 14 33  1  0  0  0  0
 15 18  2  0  0  0  0
 16 17  2  0  0  0  0
 16 34  1  0  0  0  0
 16 35  1  0  0  0  0
M  END
$$$$
