7E18_ligand1
 OpenBabel04052409413D

 74 78  0  0  1  0  0  0  0  0999 V2000
   10.0807    6.8018   26.0130 C   0  0  0  0  0  0  0  0  0  0  0  0
    9.9046    1.8166   22.4671 C   0  0  0  0  0  0  0  0  0  0  0  0
   10.0860   -0.6732   22.4576 C   0  0  2  0  0  0  0  0  0  0  0  0
    8.6026   -1.0466   22.3116 C   0  0  0  0  0  0  0  0  0  0  0  0
    6.8624   -2.0209   20.8322 C   0  0  1  0  0  0  0  0  0  0  0  0
    6.4921   -1.3088   19.5091 C   0  0  0  0  0  0  0  0  0  0  0  0
    6.1538    0.1755   19.7350 C   0  0  2  0  0  0  0  0  0  0  0  0
    4.9392    0.3551   20.6607 C   0  0  0  0  0  0  0  0  0  0  0  0
    4.0773    1.4358   20.0235 C   0  0  0  0  0  0  0  0  0  0  0  0
    5.7090    0.8947   18.4671 C   0  0  0  0  0  0  0  0  0  0  0  0
    6.6588   -3.5404   20.7603 C   0  0  0  0  0  0  0  0  0  0  0  0
    9.6558    7.4082   24.8161 C   0  0  0  0  0  0  0  0  0  0  0  0
    7.1547   -4.3309   21.9127 C   0  0  0  0  0  0  0  0  0  0  0  0
    7.2799   -5.2258   23.9549 C   0  0  0  0  0  0  0  0  0  0  0  0
    8.5784   -5.5798   23.4852 C   0  0  0  0  0  0  0  0  0  0  0  0
    6.9301   -5.6099   25.2695 C   0  0  0  0  0  0  0  0  0  0  0  0
    7.8380   -6.3089   26.0893 C   0  0  0  0  0  0  0  0  0  0  0  0
    9.1182   -6.6369   25.6069 C   0  0  0  0  0  0  0  0  0  0  0  0
    9.4882   -6.2778   24.2999 C   0  0  0  0  0  0  0  0  0  0  0  0
   10.7646   -1.7313   23.3578 C   0  0  0  0  0  0  0  0  0  0  0  0
   12.3013   -1.6391   23.4406 C   0  0  0  0  0  0  0  0  0  0  0  0
   12.8386   -2.5526   24.5538 C   0  0  0  0  0  0  0  0  0  0  0  0
    9.4995    6.6351   23.6525 C   0  0  0  0  0  0  0  0  0  0  0  0
   12.9621   -1.9877   22.1006 C   0  0  0  0  0  0  0  0  0  0  0  0
    9.7546    5.2556   23.7114 C   0  0  0  0  0  0  0  0  0  0  0  0
   10.1872    4.6162   24.9060 C   0  0  0  0  0  0  0  0  0  0  0  0
   10.3511    5.4103   26.0669 C   0  0  0  0  0  0  0  0  0  0  0  0
   10.0017    3.0226   23.3113 C   0  0  0  0  0  0  0  0  0  0  0  0
   10.3554    3.2204   24.6201 C   0  0  0  0  0  0  0  0  0  0  0  0
   10.9385    5.5079   28.3941 C   0  0  0  0  0  0  0  0  0  0  0  0
    9.6632    4.2513   22.7707 N   0  0  0  0  0  0  0  0  0  0  0  0
   10.2217    0.6540   23.0652 N   0  0  0  0  0  0  0  0  0  0  0  0
    8.2409   -1.6689   21.1788 N   0  0  0  0  0  0  0  0  0  0  0  0
    4.5531    1.5198   18.6592 N   0  0  0  0  0  0  0  0  0  0  0  0
    6.4878   -4.5179   23.0565 N   0  0  0  0  0  0  0  0  0  0  0  0
   10.7696    4.7527   27.2042 O   0  0  0  0  0  0  0  0  0  0  0  0
    9.5123    1.8911   21.3023 O   0  0  0  0  0  0  0  0  0  0  0  0
    7.8088   -0.7806   23.2152 O   0  0  0  0  0  0  0  0  0  0  0  0
    6.0625   -4.1013   19.8412 O   0  0  0  0  0  0  0  0  0  0  0  0
    6.3461    0.8980   17.4195 O   0  0  0  0  0  0  0  0  0  0  0  0
    8.7798   -5.0181   21.8317 S   0  0  0  0  0  0  0  0  0  0  0  0
   10.1924    7.4319   26.8826 H   0  0  0  0  0  0  0  0  0  0  0  0
   10.5477   -0.6570   21.4709 H   0  0  0  0  0  0  0  0  0  0  0  0
    6.1815   -1.6921   21.6154 H   0  0  0  0  0  0  0  0  0  0  0  0
    5.6194   -1.7775   19.0519 H   0  0  0  0  0  0  0  0  0  0  0  0
    7.3007   -1.4082   18.7834 H   0  0  0  0  0  0  0  0  0  0  0  0
    7.0143    0.7130   20.1337 H   0  0  0  0  0  0  0  0  0  0  0  0
    5.2263    0.6099   21.6794 H   0  0  0  0  0  0  0  0  0  0  0  0
    4.3586   -0.5655   20.7112 H   0  0  0  0  0  0  0  0  0  0  0  0
    4.2437    2.3877   20.5261 H   0  0  0  0  0  0  0  0  0  0  0  0
    3.0159    1.1946   20.0724 H   0  0  0  0  0  0  0  0  0  0  0  0
    9.4441    8.4659   24.7958 H   0  0  0  0  0  0  0  0  0  0  0  0
    5.9524   -5.3598   25.6525 H   0  0  0  0  0  0  0  0  0  0  0  0
    7.5544   -6.5949   27.0924 H   0  0  0  0  0  0  0  0  0  0  0  0
    9.8122   -7.1739   26.2390 H   0  0  0  0  0  0  0  0  0  0  0  0
   10.4644   -6.5408   23.9277 H   0  0  0  0  0  0  0  0  0  0  0  0
   10.5046   -2.7328   23.0107 H   0  0  0  0  0  0  0  0  0  0  0  0
   10.3463   -1.6605   24.3634 H   0  0  0  0  0  0  0  0  0  0  0  0
   12.5797   -0.6178   23.7003 H   0  0  0  0  0  0  0  0  0  0  0  0
   13.9255   -2.5050   24.6176 H   0  0  0  0  0  0  0  0  0  0  0  0
   12.4460   -2.2579   25.5269 H   0  0  0  0  0  0  0  0  0  0  0  0
   12.5623   -3.5936   24.3811 H   0  0  0  0  0  0  0  0  0  0  0  0
    9.1731    7.0926   22.7302 H   0  0  0  0  0  0  0  0  0  0  0  0
   14.0360   -2.0940   22.2137 H   0  0  0  0  0  0  0  0  0  0  0  0
   12.5828   -2.9286   21.7046 H   0  0  0  0  0  0  0  0  0  0  0  0
   12.7889   -1.2145   21.3531 H   0  0  0  0  0  0  0  0  0  0  0  0
   10.6702    2.4762   25.3259 H   0  0  0  0  0  0  0  0  0  0  0  0
   11.2888    4.8530   29.1899 H   0  0  0  0  0  0  0  0  0  0  0  0
   11.6819    6.2954   28.2660 H   0  0  0  0  0  0  0  0  0  0  0  0
    9.9968    5.9498   28.7201 H   0  0  0  0  0  0  0  0  0  0  0  0
    9.4104    4.3697   21.7971 H   0  0  0  0  0  0  0  0  0  0  0  0
   10.5011    0.6836   24.0356 H   0  0  0  0  0  0  0  0  0  0  0  0
    8.9576   -1.8743   20.4955 H   0  0  0  0  0  0  0  0  0  0  0  0
    4.0665    2.0378   17.9385 H   0  0  0  0  0  0  0  0  0  0  0  0
  1 12  2  0  0  0  0
  1 27  1  0  0  0  0
  1 42  1  0  0  0  0
  2 28  1  0  0  0  0
  2 32  1  0  0  0  0
  2 37  2  0  0  0  0
  3  4  1  0  0  0  0
  3 20  1  0  0  0  0
  3 32  1  0  0  0  0
  3 43  1  6  0  0  0
  4 33  1  0  0  0  0
  4 38  2  0  0  0  0
  5  6  1  0  0  0  0
  5 11  1  0  0  0  0
  5 33  1  0  0  0  0
  5 44  1  1  0  0  0
  6  7  1  0  0  0  0
  6 45  1  0  0  0  0
  6 46  1  0  0  0  0
  7  8  1  0  0  0  0
  7 10  1  0  0  0  0
  7 47  1  1  0  0  0
  8  9  1  0  0  0  0
  8 48  1  0  0  0  0
  8 49  1  0  0  0  0
  9 34  1  0  0  0  0
  9 50  1  0  0  0  0
  9 51  1  0  0  0  0
 10 34  1  0  0  0  0
 10 40  2  0  0  0  0
 11 13  1  0  0  0  0
 11 39  2  0  0  0  0
 12 23  1  0  0  0  0
 12 52  1  0  0  0  0
 13 35  2  0  0  0  0
 13 41  1  0  0  0  0
 14 15  2  0  0  0  0
 14 16  1  0  0  0  0
 14 35  1  0  0  0  0
 15 19  1  0  0  0  0
 15 41  1  0  0  0  0
 16 17  2  0  0  0  0
 16 53  1  0  0  0  0
 17 18  1  0  0  0  0
 17 54  1  0  0  0  0
 18 19  2  0  0  0  0
 18 55  1  0  0  0  0
 19 56  1  0  0  0  0
 20 21  1  0  0  0  0
 20 57  1  0  0  0  0
 20 58  1  0  0  0  0
 21 22  1  0  0  0  0
 21 24  1  0  0  0  0
 21 59  1  0  0  0  0
 22 60  1  0  0  0  0
 22 61  1  0  0  0  0
 22 62  1  0  0  0  0
 23 25  2  0  0  0  0
 23 63  1  0  0  0  0
 24 64  1  0  0  0  0
 24 65  1  0  0  0  0
 24 66  1  0  0  0  0
 25 26  1  0  0  0  0
 25 31  1  0  0  0  0
 26 27  2  0  0  0  0
 26 29  1  0  0  0  0
 27 36  1  0  0  0  0
 28 29  2  0  0  0  0
 28 31  1  0  0  0  0
 29 67  1  0  0  0  0
 30 36  1  0  0  0  0
 30 68  1  0  0  0  0
 30 69  1  0  0  0  0
 30 70  1  0  0  0  0
 31 71  1  0  0  0  0
 32 72  1  0  0  0  0
 33 73  1  0  0  0  0
 34 74  1  0  0  0  0
M  END
$$$$
