7E19_ligand1
 OpenBabel04052409413D

 86 89  0  0  1  0  0  0  0  0999 V2000
    5.5468    0.7046   20.5995 C   0  0  0  0  0  0  0  0  0  0  0  0
    7.2215   -1.8155   20.5068 C   0  0  1  0  0  0  0  0  0  0  0  0
    8.9709   -0.9132   21.9973 C   0  0  0  0  0  0  0  0  0  0  0  0
    4.8301    1.5919   18.5782 N   0  0  0  0  0  0  0  0  0  0  0  0
   10.0134    2.0165   22.1036 C   0  0  0  0  0  0  0  0  0  0  0  0
   10.4303    0.9031   22.7300 N   0  0  0  0  0  0  0  0  0  0  0  0
    6.8521   -1.0343   19.2329 C   0  0  0  0  0  0  0  0  0  0  0  0
   10.0007    3.3192   22.9061 C   0  0  2  0  0  0  0  0  0  0  0  0
    6.0474    1.1476   18.3117 C   0  0  0  0  0  0  0  0  0  0  0  0
    6.8998   -3.3073   20.4072 C   0  0  0  0  0  0  0  0  0  0  0  0
    7.3214   -4.1179   21.5597 C   0  0  0  0  0  0  0  0  0  0  0  0
    7.3384   -4.9369   23.6225 C   0  0  0  0  0  0  0  0  0  0  0  0
    8.7002   -5.1783   23.2761 C   0  0  0  0  0  0  0  0  0  0  0  0
    6.9215   -5.2860   24.9247 C   0  0  0  0  0  0  0  0  0  0  0  0
    7.8259   -5.8398   25.8504 C   0  0  0  0  0  0  0  0  0  0  0  0
    9.1677   -6.0562   25.4871 C   0  0  0  0  0  0  0  0  0  0  0  0
    9.6078   -5.7260   24.1938 C   0  0  0  0  0  0  0  0  0  0  0  0
   11.1815   -1.4329   23.0412 C   0  0  0  0  0  0  0  0  0  0  0  0
   12.6540   -1.0779   23.3408 C   0  0  0  0  0  0  0  0  0  0  0  0
   13.5296   -1.2150   22.0979 C   0  0  0  0  0  0  0  0  0  0  0  0
   13.2220   -1.9404   24.4736 C   0  0  0  0  0  0  0  0  0  0  0  0
   12.1357    4.5886   23.1065 C   0  0  0  0  0  0  0  0  0  0  0  0
    8.6588    4.0972   22.8293 C   0  0  0  0  0  0  0  0  0  0  0  0
    8.6997    5.4060   23.6412 C   0  0  0  0  0  0  0  0  0  0  0  0
    7.4557    3.2572   23.2829 C   0  0  0  0  0  0  0  0  0  0  0  0
   13.8581    6.2316   23.0128 C   0  0  0  0  0  0  0  0  0  0  0  0
   13.3594    7.3211   23.9473 C   0  0  0  0  0  0  0  0  0  0  0  0
   13.1038    7.0533   25.3093 C   0  0  0  0  0  0  0  0  0  0  0  0
   10.4247   -0.4369   22.1338 C   0  0  1  0  0  0  0  0  0  0  0  0
   12.6034    8.0645   26.1493 C   0  0  0  0  0  0  0  0  0  0  0  0
   12.3623    9.3525   25.6334 C   0  0  0  0  0  0  0  0  0  0  0  0
   12.6353    9.6303   24.2805 C   0  0  0  0  0  0  0  0  0  0  0  0
   13.1373    8.6161   23.4433 C   0  0  0  0  0  0  0  0  0  0  0  0
    6.6297    0.4574   19.5260 C   0  0  1  0  0  0  0  0  0  0  0  0
    4.5455    1.6703   19.9914 C   0  0  0  0  0  0  0  0  0  0  0  0
    8.6159   -1.5235   20.8556 N   0  0  0  0  0  0  0  0  0  0  0  0
    6.5610   -4.3542   22.6297 N   0  0  0  0  0  0  0  0  0  0  0  0
   11.0578    4.1588   22.3739 N   0  0  0  0  0  0  0  0  0  0  0  0
    9.6311    2.0171   20.9385 O   0  0  0  0  0  0  0  0  0  0  0  0
    8.1772   -0.7062   22.9173 O   0  0  0  0  0  0  0  0  0  0  0  0
    6.2232   -3.8122   19.5123 O   0  0  0  0  0  0  0  0  0  0  0  0
    6.6294    1.2727   17.2408 O   0  0  0  0  0  0  0  0  0  0  0  0
   12.8034    5.5081   22.4019 O   0  0  0  0  0  0  0  0  0  0  0  0
   12.4103    4.2288   24.2448 O   0  0  0  0  0  0  0  0  0  0  0  0
    8.9872   -4.6885   21.6194 S   0  0  0  0  0  0  0  0  0  0  0  0
    5.9607    1.0783   21.5345 H   0  0  0  0  0  0  0  0  0  0  0  0
    4.9976   -0.2043   20.8296 H   0  0  0  0  0  0  0  0  0  0  0  0
    6.5762   -1.4956   21.3208 H   0  0  0  0  0  0  0  0  0  0  0  0
    4.2596    2.0689   17.8922 H   0  0  0  0  0  0  0  0  0  0  0  0
   10.6886    0.9738   23.7054 H   0  0  0  0  0  0  0  0  0  0  0  0
    5.9331   -1.4319   18.7983 H   0  0  0  0  0  0  0  0  0  0  0  0
    7.6245   -1.1608   18.4730 H   0  0  0  0  0  0  0  0  0  0  0  0
   10.1949    3.0900   23.9523 H   0  0  0  0  0  0  0  0  0  0  0  0
    5.8971   -5.1184   25.2196 H   0  0  0  0  0  0  0  0  0  0  0  0
    7.4923   -6.0968   26.8445 H   0  0  0  0  0  0  0  0  0  0  0  0
    9.8621   -6.4719   26.2016 H   0  0  0  0  0  0  0  0  0  0  0  0
   10.6346   -5.8827   23.9051 H   0  0  0  0  0  0  0  0  0  0  0  0
   10.6425   -1.5264   23.9796 H   0  0  0  0  0  0  0  0  0  0  0  0
   11.1453   -2.4284   22.5948 H   0  0  0  0  0  0  0  0  0  0  0  0
   12.7170   -0.0437   23.6832 H   0  0  0  0  0  0  0  0  0  0  0  0
   14.5781   -1.1328   22.3631 H   0  0  0  0  0  0  0  0  0  0  0  0
   13.3840   -2.1729   21.5993 H   0  0  0  0  0  0  0  0  0  0  0  0
   13.3181   -0.4216   21.3926 H   0  0  0  0  0  0  0  0  0  0  0  0
   14.2848   -1.7475   24.6272 H   0  0  0  0  0  0  0  0  0  0  0  0
   12.7199   -1.6969   25.4069 H   0  0  0  0  0  0  0  0  0  0  0  0
   13.0995   -3.0052   24.2743 H   0  0  0  0  0  0  0  0  0  0  0  0
    8.4855    4.3765   21.7911 H   0  0  0  0  0  0  0  0  0  0  0  0
    7.7418    5.9266   23.5947 H   0  0  0  0  0  0  0  0  0  0  0  0
    8.9209    5.2138   24.6916 H   0  0  0  0  0  0  0  0  0  0  0  0
    9.4529    6.0967   23.2644 H   0  0  0  0  0  0  0  0  0  0  0  0
    6.5271    3.8135   23.1548 H   0  0  0  0  0  0  0  0  0  0  0  0
    7.3597    2.3361   22.7144 H   0  0  0  0  0  0  0  0  0  0  0  0
    7.5405    2.9918   24.3366 H   0  0  0  0  0  0  0  0  0  0  0  0
   14.5383    5.5562   23.5328 H   0  0  0  0  0  0  0  0  0  0  0  0
   14.4238    6.7006   22.2099 H   0  0  0  0  0  0  0  0  0  0  0  0
   13.2898    6.0719   25.7192 H   0  0  0  0  0  0  0  0  0  0  0  0
   10.8989   -0.3856   21.1569 H   0  0  0  0  0  0  0  0  0  0  0  0
   12.4051    7.8528   27.1904 H   0  0  0  0  0  0  0  0  0  0  0  0
   11.9780   10.1302   26.2781 H   0  0  0  0  0  0  0  0  0  0  0  0
   12.4628   10.6207   23.8869 H   0  0  0  0  0  0  0  0  0  0  0  0
   13.3573    8.8329   22.4124 H   0  0  0  0  0  0  0  0  0  0  0  0
    7.5619    0.9515   19.7954 H   0  0  0  0  0  0  0  0  0  0  0  0
    4.7262    2.6838   20.3515 H   0  0  0  0  0  0  0  0  0  0  0  0
    3.5117    1.4077   20.2139 H   0  0  0  0  0  0  0  0  0  0  0  0
    9.3252   -1.6870   20.1534 H   0  0  0  0  0  0  0  0  0  0  0  0
   10.9623    4.5405   21.4399 H   0  0  0  0  0  0  0  0  0  0  0  0
  1 34  1  0  0  0  0
  1 35  1  0  0  0  0
  1 46  1  0  0  0  0
  1 47  1  0  0  0  0
  2  7  1  0  0  0  0
  2 10  1  0  0  0  0
  2 36  1  0  0  0  0
  2 48  1  1  0  0  0
  3 29  1  0  0  0  0
  3 36  1  0  0  0  0
  3 40  2  0  0  0  0
  4  9  1  0  0  0  0
  4 35  1  0  0  0  0
  4 49  1  0  0  0  0
  5  6  1  0  0  0  0
  5  8  1  0  0  0  0
  5 39  2  0  0  0  0
  6 29  1  0  0  0  0
  6 50  1  0  0  0  0
  7 34  1  0  0  0  0
  7 51  1  0  0  0  0
  7 52  1  0  0  0  0
  8 23  1  0  0  0  0
  8 38  1  0  0  0  0
  8 53  1  1  0  0  0
  9 34  1  0  0  0  0
  9 42  2  0  0  0  0
 10 11  1  0  0  0  0
 10 41  2  0  0  0  0
 11 37  2  0  0  0  0
 11 45  1  0  0  0  0
 12 13  2  0  0  0  0
 12 14  1  0  0  0  0
 12 37  1  0  0  0  0
 13 17  1  0  0  0  0
 13 45  1  0  0  0  0
 14 15  2  0  0  0  0
 14 54  1  0  0  0  0
 15 16  1  0  0  0  0
 15 55  1  0  0  0  0
 16 17  2  0  0  0  0
 16 56  1  0  0  0  0
 17 57  1  0  0  0  0
 18 19  1  0  0  0  0
 18 29  1  0  0  0  0
 18 58  1  0  0  0  0
 18 59  1  0  0  0  0
 19 20  1  0  0  0  0
 19 21  1  0  0  0  0
 19 60  1  0  0  0  0
 20 61  1  0  0  0  0
 20 62  1  0  0  0  0
 20 63  1  0  0  0  0
 21 64  1  0  0  0  0
 21 65  1  0  0  0  0
 21 66  1  0  0  0  0
 22 38  1  0  0  0  0
 22 43  1  0  0  0  0
 22 44  2  0  0  0  0
 23 24  1  0  0  0  0
 23 25  1  0  0  0  0
 23 67  1  0  0  0  0
 24 68  1  0  0  0  0
 24 69  1  0  0  0  0
 24 70  1  0  0  0  0
 25 71  1  0  0  0  0
 25 72  1  0  0  0  0
 25 73  1  0  0  0  0
 26 27  1  0  0  0  0
 26 43  1  0  0  0  0
 26 74  1  0  0  0  0
 26 75  1  0  0  0  0
 27 28  2  0  0  0  0
 27 33  1  0  0  0  0
 28 30  1  0  0  0  0
 28 76  1  0  0  0  0
 29 77  1  6  0  0  0
 30 31  2  0  0  0  0
 30 78  1  0  0  0  0
 31 32  1  0  0  0  0
 31 79  1  0  0  0  0
 32 33  2  0  0  0  0
 32 80  1  0  0  0  0
 33 81  1  0  0  0  0
 34 82  1  1  0  0  0
 35 83  1  0  0  0  0
 35 84  1  0  0  0  0
 36 85  1  0  0  0  0
 38 86  1  0  0  0  0
M  END
$$$$
