7L11_ligand1
 OpenBabel04052409413D

 52 55  0  0  0  0  0  0  0  0999 V2000
    7.3228   -2.2376   21.9079 C   0  0  0  0  0  0  0  0  0  0  0  0
    7.9945   -2.9236   22.8510 C   0  0  0  0  0  0  0  0  0  0  0  0
    7.4180   -4.0869   23.5754 C   0  0  0  0  0  0  0  0  0  0  0  0
    6.6263   -5.1050   22.9661 C   0  0  0  0  0  0  0  0  0  0  0  0
    6.3840   -5.1781   21.5340 C   0  0  0  0  0  0  0  0  0  0  0  0
    6.0777   -6.1370   23.7574 C   0  0  0  0  0  0  0  0  0  0  0  0
    9.4209    0.5014   21.1090 O   0  0  0  0  0  0  0  0  0  0  0  0
    9.0462   -0.5564   21.6194 C   0  0  0  0  0  0  0  0  0  0  0  0
    7.0259   -0.4624   20.3142 C   0  0  0  0  0  0  0  0  0  0  0  0
    7.4520   -0.3143   18.9776 C   0  0  0  0  0  0  0  0  0  0  0  0
    5.5417    0.8503   18.4032 C   0  0  0  0  0  0  0  0  0  0  0  0
    5.0272    0.7590   19.7134 C   0  0  0  0  0  0  0  0  0  0  0  0
    5.7774    0.0772   20.6832 C   0  0  0  0  0  0  0  0  0  0  0  0
   13.2137    2.2138   23.6428 O   0  0  0  0  0  0  0  0  0  0  0  0
    6.3121   -6.1791   25.1408 C   0  0  0  0  0  0  0  0  0  0  0  0
    7.1177   -5.2010   25.7439 C   0  0  0  0  0  0  0  0  0  0  0  0
    7.6705   -4.1679   24.9645 C   0  0  0  0  0  0  0  0  0  0  0  0
    9.3127   -2.4098   23.1830 C   0  0  0  0  0  0  0  0  0  0  0  0
    9.8305   -1.2850   22.6336 C   0  0  0  0  0  0  0  0  0  0  0  0
   11.2124   -0.8710   22.9762 C   0  0  0  0  0  0  0  0  0  0  0  0
   12.2254   -1.8392   23.1413 C   0  0  0  0  0  0  0  0  0  0  0  0
   13.5254   -1.4482   23.5057 C   0  0  0  0  0  0  0  0  0  0  0  0
   13.8279   -0.0862   23.6852 C   0  0  0  0  0  0  0  0  0  0  0  0
   12.8392    0.8979   23.4977 C   0  0  0  0  0  0  0  0  0  0  0  0
   12.3639    3.2038   23.0790 C   0  0  0  0  0  0  0  0  0  0  0  0
   13.0656    4.5620   23.1428 C   0  0  0  0  0  0  0  0  0  0  0  0
   14.3613    4.5949   22.3307 C   0  0  0  0  0  0  0  0  0  0  0  0
   11.5241    0.4921   23.1723 C   0  0  0  0  0  0  0  0  0  0  0  0
    7.8471   -1.1041   21.2739 N   0  0  0  0  0  0  0  0  0  0  0  0
    6.7260    0.3236   18.0394 N   0  0  0  0  0  0  0  0  0  0  0  0
    6.1908   -5.2362   20.3988 N   0  0  0  0  0  0  0  0  0  0  0  0
   14.7435   -2.6409   23.7478 Cl  0  0  0  0  0  0  0  0  0  0  0  0
    6.3208   -2.4890   21.5922 H   0  0  0  0  0  0  0  0  0  0  0  0
    5.4753   -6.9104   23.3044 H   0  0  0  0  0  0  0  0  0  0  0  0
    8.4036   -0.7122   18.6509 H   0  0  0  0  0  0  0  0  0  0  0  0
    5.0022    1.3499   17.6143 H   0  0  0  0  0  0  0  0  0  0  0  0
    4.0742    1.1867   19.9835 H   0  0  0  0  0  0  0  0  0  0  0  0
    5.4076   -0.0118   21.6940 H   0  0  0  0  0  0  0  0  0  0  0  0
    5.8912   -6.9746   25.7396 H   0  0  0  0  0  0  0  0  0  0  0  0
    7.3089   -5.2392   26.8059 H   0  0  0  0  0  0  0  0  0  0  0  0
    8.2701   -3.4204   25.4623 H   0  0  0  0  0  0  0  0  0  0  0  0
    9.9066   -2.9636   23.8958 H   0  0  0  0  0  0  0  0  0  0  0  0
   12.0136   -2.8879   22.9987 H   0  0  0  0  0  0  0  0  0  0  0  0
   14.8318    0.2069   23.9405 H   0  0  0  0  0  0  0  0  0  0  0  0
   11.4274    3.2575   23.6348 H   0  0  0  0  0  0  0  0  0  0  0  0
   12.1297    2.9561   22.0434 H   0  0  0  0  0  0  0  0  0  0  0  0
   13.2765    4.8197   24.1801 H   0  0  0  0  0  0  0  0  0  0  0  0
   12.3929    5.3278   22.7630 H   0  0  0  0  0  0  0  0  0  0  0  0
   14.7775    5.6014   22.3105 H   0  0  0  0  0  0  0  0  0  0  0  0
   15.1044    3.9253   22.7619 H   0  0  0  0  0  0  0  0  0  0  0  0
   14.1891    4.2822   21.3015 H   0  0  0  0  0  0  0  0  0  0  0  0
   10.7405    1.2257   23.0755 H   0  0  0  0  0  0  0  0  0  0  0  0
  1  2  2  0  0  0  0
  1 29  1  0  0  0  0
  1 33  1  0  0  0  0
  2  3  1  0  0  0  0
  2 18  1  0  0  0  0
  3  4  2  0  0  0  0
  3 17  1  0  0  0  0
  4  5  1  0  0  0  0
  4  6  1  0  0  0  0
  5 31  3  0  0  0  0
  6 15  2  0  0  0  0
  6 34  1  0  0  0  0
  7  8  2  0  0  0  0
  8 19  1  0  0  0  0
  8 29  1  0  0  0  0
  9 10  2  0  0  0  0
  9 13  1  0  0  0  0
  9 29  1  0  0  0  0
 10 30  1  0  0  0  0
 10 35  1  0  0  0  0
 11 12  1  0  0  0  0
 11 30  2  0  0  0  0
 11 36  1  0  0  0  0
 12 13  2  0  0  0  0
 12 37  1  0  0  0  0
 13 38  1  0  0  0  0
 14 24  1  0  0  0  0
 14 25  1  0  0  0  0
 15 16  1  0  0  0  0
 15 39  1  0  0  0  0
 16 17  2  0  0  0  0
 16 40  1  0  0  0  0
 17 41  1  0  0  0  0
 18 19  2  0  0  0  0
 18 42  1  0  0  0  0
 19 20  1  0  0  0  0
 20 21  2  0  0  0  0
 20 28  1  0  0  0  0
 21 22  1  0  0  0  0
 21 43  1  0  0  0  0
 22 23  2  0  0  0  0
 22 32  1  0  0  0  0
 23 24  1  0  0  0  0
 23 44  1  0  0  0  0
 24 28  2  0  0  0  0
 25 26  1  0  0  0  0
 25 45  1  0  0  0  0
 25 46  1  0  0  0  0
 26 27  1  0  0  0  0
 26 47  1  0  0  0  0
 26 48  1  0  0  0  0
 27 49  1  0  0  0  0
 27 50  1  0  0  0  0
 27 51  1  0  0  0  0
 28 52  1  0  0  0  0
M  END
$$$$
