7L12_ligand1
 OpenBabel04052409413D

 55 59  0  0  0  0  0  0  0  0999 V2000
    8.6162   -0.2800   21.3002 C   0  0  0  0  0  0  0  0  0  0  0  0
    8.8441   -2.2881   22.6631 C   0  0  0  0  0  0  0  0  0  0  0  0
    9.3617   -1.0978   22.2714 C   0  0  0  0  0  0  0  0  0  0  0  0
   10.7069   -0.6835   22.7333 C   0  0  0  0  0  0  0  0  0  0  0  0
   11.7410   -1.6348   22.8527 C   0  0  0  0  0  0  0  0  0  0  0  0
    6.6876   -0.1073   19.8891 C   0  0  0  0  0  0  0  0  0  0  0  0
   13.0028   -1.2475   23.3322 C   0  0  0  0  0  0  0  0  0  0  0  0
   13.2519    0.0959   23.6525 C   0  0  0  0  0  0  0  0  0  0  0  0
   12.2432    1.0682   23.5184 C   0  0  0  0  0  0  0  0  0  0  0  0
   11.6819    3.4022   23.4428 C   0  0  0  0  0  0  0  0  0  0  0  0
   12.3019    4.7539   23.7174 C   0  0  0  0  0  0  0  0  0  0  0  0
   10.9598    0.6621   23.0895 C   0  0  0  0  0  0  0  0  0  0  0  0
    7.1737    0.0780   18.5785 C   0  0  0  0  0  0  0  0  0  0  0  0
    5.2979    1.2695   17.9719 C   0  0  0  0  0  0  0  0  0  0  0  0
    4.7313    1.1351   19.2579 C   0  0  0  0  0  0  0  0  0  0  0  0
    5.4374    0.4293   20.2376 C   0  0  0  0  0  0  0  0  0  0  0  0
    6.9122   -2.0032   21.3190 C   0  0  0  0  0  0  0  0  0  0  0  0
    7.5485   -2.7743   22.2138 C   0  0  0  0  0  0  0  0  0  0  0  0
    6.9853   -4.0435   22.6711 C   0  0  0  0  0  0  0  0  0  0  0  0
    7.2038   -4.4499   23.9517 C   0  0  0  0  0  0  0  0  0  0  0  0
    6.2523   -4.9615   21.7719 C   0  0  0  0  0  0  0  0  0  0  0  0
    5.9790   -6.5054   23.6863 C   0  0  0  0  0  0  0  0  0  0  0  0
   13.4533    5.1510   23.0058 C   0  0  0  0  0  0  0  0  0  0  0  0
   14.0880    6.3659   23.3184 C   0  0  0  0  0  0  0  0  0  0  0  0
   13.5912    7.1758   24.3592 C   0  0  0  0  0  0  0  0  0  0  0  0
   12.4290    6.7926   25.0542 C   0  0  0  0  0  0  0  0  0  0  0  0
   11.7705    5.5946   24.7173 C   0  0  0  0  0  0  0  0  0  0  0  0
    7.4485   -0.8041   20.8442 N   0  0  0  0  0  0  0  0  0  0  0  0
    6.4941    0.7549   17.6351 N   0  0  0  0  0  0  0  0  0  0  0  0
    5.7936   -6.1451   22.3575 N   0  0  0  0  0  0  0  0  0  0  0  0
    6.7184   -5.6278   24.4686 N   0  0  0  0  0  0  0  0  0  0  0  0
    8.9998    0.8272   20.9153 O   0  0  0  0  0  0  0  0  0  0  0  0
   12.5767    2.3676   23.8248 O   0  0  0  0  0  0  0  0  0  0  0  0
    6.0185   -4.7728   20.5791 O   0  0  0  0  0  0  0  0  0  0  0  0
    5.5136   -7.5425   24.1494 O   0  0  0  0  0  0  0  0  0  0  0  0
   14.2375   -2.4292   23.5396 Cl  0  0  0  0  0  0  0  0  0  0  0  0
    9.4143   -2.9071   23.3398 H   0  0  0  0  0  0  0  0  0  0  0  0
   11.5698   -2.6698   22.5983 H   0  0  0  0  0  0  0  0  0  0  0  0
   14.2334    0.3833   23.9860 H   0  0  0  0  0  0  0  0  0  0  0  0
   11.4645    3.3233   22.3776 H   0  0  0  0  0  0  0  0  0  0  0  0
   10.7423    3.3158   23.9908 H   0  0  0  0  0  0  0  0  0  0  0  0
   10.1578    1.3788   23.0340 H   0  0  0  0  0  0  0  0  0  0  0  0
    8.1330   -0.3218   18.2804 H   0  0  0  0  0  0  0  0  0  0  0  0
    4.7977    1.7942   17.1753 H   0  0  0  0  0  0  0  0  0  0  0  0
    3.7679    1.5367   19.5172 H   0  0  0  0  0  0  0  0  0  0  0  0
    5.0271    0.3141   21.2307 H   0  0  0  0  0  0  0  0  0  0  0  0
    5.9482   -2.2518   20.8960 H   0  0  0  0  0  0  0  0  0  0  0  0
    7.7532   -3.8219   24.6364 H   0  0  0  0  0  0  0  0  0  0  0  0
   13.8581    4.5139   22.2323 H   0  0  0  0  0  0  0  0  0  0  0  0
   14.9701    6.6682   22.7718 H   0  0  0  0  0  0  0  0  0  0  0  0
   14.0937    8.0973   24.6105 H   0  0  0  0  0  0  0  0  0  0  0  0
   12.0375    7.4218   25.8400 H   0  0  0  0  0  0  0  0  0  0  0  0
   10.8817    5.3043   25.2578 H   0  0  0  0  0  0  0  0  0  0  0  0
    5.2747   -6.7848   21.7747 H   0  0  0  0  0  0  0  0  0  0  0  0
    6.8909   -5.8753   25.4330 H   0  0  0  0  0  0  0  0  0  0  0  0
  1  3  1  0  0  0  0
  1 28  1  0  0  0  0
  1 32  2  0  0  0  0
  2  3  2  0  0  0  0
  2 18  1  0  0  0  0
  2 37  1  0  0  0  0
  3  4  1  0  0  0  0
  4  5  2  0  0  0  0
  4 12  1  0  0  0  0
  5  7  1  0  0  0  0
  5 38  1  0  0  0  0
  6 13  2  0  0  0  0
  6 16  1  0  0  0  0
  6 28  1  0  0  0  0
  7  8  2  0  0  0  0
  7 36  1  0  0  0  0
  8  9  1  0  0  0  0
  8 39  1  0  0  0  0
  9 12  2  0  0  0  0
  9 33  1  0  0  0  0
 10 11  1  0  0  0  0
 10 33  1  0  0  0  0
 10 40  1  0  0  0  0
 10 41  1  0  0  0  0
 11 23  2  0  0  0  0
 11 27  1  0  0  0  0
 12 42  1  0  0  0  0
 13 29  1  0  0  0  0
 13 43  1  0  0  0  0
 14 15  1  0  0  0  0
 14 29  2  0  0  0  0
 14 44  1  0  0  0  0
 15 16  2  0  0  0  0
 15 45  1  0  0  0  0
 16 46  1  0  0  0  0
 17 18  2  0  0  0  0
 17 28  1  0  0  0  0
 17 47  1  0  0  0  0
 18 19  1  0  0  0  0
 19 20  2  0  0  0  0
 19 21  1  0  0  0  0
 20 31  1  0  0  0  0
 20 48  1  0  0  0  0
 21 30  1  0  0  0  0
 21 34  2  0  0  0  0
 22 30  1  0  0  0  0
 22 31  1  0  0  0  0
 22 35  2  0  0  0  0
 23 24  1  0  0  0  0
 23 49  1  0  0  0  0
 24 25  2  0  0  0  0
 24 50  1  0  0  0  0
 25 26  1  0  0  0  0
 25 51  1  0  0  0  0
 26 27  2  0  0  0  0
 26 52  1  0  0  0  0
 27 53  1  0  0  0  0
 30 54  1  0  0  0  0
 31 55  1  0  0  0  0
M  END
$$$$
