7M8N_ligand1
 OpenBabel04052409413D

 58 62  0  0  0  0  0  0  0  0999 V2000
    7.3726   -1.8564   21.3704 C   0  0  0  0  0  0  0  0  0  0  0  0
    5.8955    0.5378   20.2263 C   0  0  0  0  0  0  0  0  0  0  0  0
    9.0693   -0.1336   21.2451 C   0  0  0  0  0  0  0  0  0  0  0  0
    7.1201   -0.0329   19.8465 C   0  0  0  0  0  0  0  0  0  0  0  0
    5.6566    1.2918   17.9380 C   0  0  0  0  0  0  0  0  0  0  0  0
    5.1537    1.2176   19.2547 C   0  0  0  0  0  0  0  0  0  0  0  0
    6.6718   -4.7540   22.0615 C   0  0  0  0  0  0  0  0  0  0  0  0
    7.5504   -4.0466   24.2180 C   0  0  0  0  0  0  0  0  0  0  0  0
   11.4532    0.8553   22.9912 C   0  0  0  0  0  0  0  0  0  0  0  0
   12.7681    1.2801   23.2960 C   0  0  0  0  0  0  0  0  0  0  0  0
   14.5058    4.5961   21.7516 C   0  0  0  0  0  0  0  0  0  0  0  0
   14.5535    6.6203   23.2595 C   0  0  0  0  0  0  0  0  0  0  0  0
   14.0553    7.3852   24.3288 C   0  0  0  0  0  0  0  0  0  0  0  0
   13.9291    5.4082   22.8954 C   0  0  0  0  0  0  0  0  0  0  0  0
   12.8938    6.9740   25.0069 C   0  0  0  0  0  0  0  0  0  0  0  0
   12.2527    5.7789   24.6359 C   0  0  0  0  0  0  0  0  0  0  0  0
   13.8136    0.3373   23.2568 C   0  0  0  0  0  0  0  0  0  0  0  0
   13.5609   -0.9983   22.8914 C   0  0  0  0  0  0  0  0  0  0  0  0
   12.2593   -1.4051   22.5540 C   0  0  0  0  0  0  0  0  0  0  0  0
    6.2014   -6.0447   24.1206 C   0  0  0  0  0  0  0  0  0  0  0  0
    9.3132   -2.0654   22.7209 C   0  0  0  0  0  0  0  0  0  0  0  0
    9.8308   -0.9063   22.2401 C   0  0  0  0  0  0  0  0  0  0  0  0
   11.1975   -0.4803   22.6068 C   0  0  0  0  0  0  0  0  0  0  0  0
   12.1696    3.6075   23.3447 C   0  0  0  0  0  0  0  0  0  0  0  0
   12.7901    4.9662   23.6143 C   0  0  0  0  0  0  0  0  0  0  0  0
    7.5440    0.0912   18.5066 C   0  0  0  0  0  0  0  0  0  0  0  0
    8.0039   -2.5634   22.3240 C   0  0  0  0  0  0  0  0  0  0  0  0
    7.4014   -3.7713   22.8927 C   0  0  0  0  0  0  0  0  0  0  0  0
    7.9104   -0.6936   20.8107 N   0  0  0  0  0  0  0  0  0  0  0  0
    6.8285    0.7411   17.5657 N   0  0  0  0  0  0  0  0  0  0  0  0
    6.1042   -5.8284   22.7519 N   0  0  0  0  0  0  0  0  0  0  0  0
    6.9737   -5.1353   24.8381 N   0  0  0  0  0  0  0  0  0  0  0  0
    9.4368    0.9654   20.8213 O   0  0  0  0  0  0  0  0  0  0  0  0
    6.5281   -4.7013   20.8400 O   0  0  0  0  0  0  0  0  0  0  0  0
    5.6393   -6.9916   24.6645 O   0  0  0  0  0  0  0  0  0  0  0  0
   13.1003    2.5726   23.6350 O   0  0  0  0  0  0  0  0  0  0  0  0
   14.8417   -2.1477   22.8692 Cl  0  0  0  0  0  0  0  0  0  0  0  0
    6.4004   -2.1230   20.9818 H   0  0  0  0  0  0  0  0  0  0  0  0
    5.5338    0.4658   21.2430 H   0  0  0  0  0  0  0  0  0  0  0  0
    5.1056    1.7955   17.1589 H   0  0  0  0  0  0  0  0  0  0  0  0
    4.2095    1.6444   19.5449 H   0  0  0  0  0  0  0  0  0  0  0  0
    8.1031   -3.3687   24.8543 H   0  0  0  0  0  0  0  0  0  0  0  0
   10.6293    1.5504   23.0388 H   0  0  0  0  0  0  0  0  0  0  0  0
   13.7201    4.2558   21.0774 H   0  0  0  0  0  0  0  0  0  0  0  0
   15.2079    5.1870   21.1653 H   0  0  0  0  0  0  0  0  0  0  0  0
   15.0352    3.7241   22.1366 H   0  0  0  0  0  0  0  0  0  0  0  0
   15.4247    6.9636   22.7232 H   0  0  0  0  0  0  0  0  0  0  0  0
   14.5561    8.2959   24.6164 H   0  0  0  0  0  0  0  0  0  0  0  0
   12.4992    7.5712   25.8155 H   0  0  0  0  0  0  0  0  0  0  0  0
   11.3747    5.4606   25.1781 H   0  0  0  0  0  0  0  0  0  0  0  0
   14.8196    0.6444   23.4964 H   0  0  0  0  0  0  0  0  0  0  0  0
   12.0803   -2.4284   22.2576 H   0  0  0  0  0  0  0  0  0  0  0  0
    9.8997   -2.6533   23.4122 H   0  0  0  0  0  0  0  0  0  0  0  0
   11.8494    3.5525   22.3049 H   0  0  0  0  0  0  0  0  0  0  0  0
   11.2812    3.4874   23.9675 H   0  0  0  0  0  0  0  0  0  0  0  0
    8.4763   -0.3418   18.1760 H   0  0  0  0  0  0  0  0  0  0  0  0
    5.5868   -6.5129   22.2152 H   0  0  0  0  0  0  0  0  0  0  0  0
    7.0894   -5.2858   25.8305 H   0  0  0  0  0  0  0  0  0  0  0  0
  1 27  2  0  0  0  0
  1 29  1  0  0  0  0
  1 38  1  0  0  0  0
  2  4  2  0  0  0  0
  2  6  1  0  0  0  0
  2 39  1  0  0  0  0
  3 22  1  0  0  0  0
  3 29  1  0  0  0  0
  3 33  2  0  0  0  0
  4 26  1  0  0  0  0
  4 29  1  0  0  0  0
  5  6  2  0  0  0  0
  5 30  1  0  0  0  0
  5 40  1  0  0  0  0
  6 41  1  0  0  0  0
  7 28  1  0  0  0  0
  7 31  1  0  0  0  0
  7 34  2  0  0  0  0
  8 28  2  0  0  0  0
  8 32  1  0  0  0  0
  8 42  1  0  0  0  0
  9 10  2  0  0  0  0
  9 23  1  0  0  0  0
  9 43  1  0  0  0  0
 10 17  1  0  0  0  0
 10 36  1  0  0  0  0
 11 14  1  0  0  0  0
 11 44  1  0  0  0  0
 11 45  1  0  0  0  0
 11 46  1  0  0  0  0
 12 13  2  0  0  0  0
 12 14  1  0  0  0  0
 12 47  1  0  0  0  0
 13 15  1  0  0  0  0
 13 48  1  0  0  0  0
 14 25  2  0  0  0  0
 15 16  2  0  0  0  0
 15 49  1  0  0  0  0
 16 25  1  0  0  0  0
 16 50  1  0  0  0  0
 17 18  2  0  0  0  0
 17 51  1  0  0  0  0
 18 19  1  0  0  0  0
 18 37  1  0  0  0  0
 19 23  2  0  0  0  0
 19 52  1  0  0  0  0
 20 31  1  0  0  0  0
 20 32  1  0  0  0  0
 20 35  2  0  0  0  0
 21 22  2  0  0  0  0
 21 27  1  0  0  0  0
 21 53  1  0  0  0  0
 22 23  1  0  0  0  0
 24 25  1  0  0  0  0
 24 36  1  0  0  0  0
 24 54  1  0  0  0  0
 24 55  1  0  0  0  0
 26 30  2  0  0  0  0
 26 56  1  0  0  0  0
 27 28  1  0  0  0  0
 31 57  1  0  0  0  0
 32 58  1  0  0  0  0
M  END
$$$$
