7M8X_ligand1
 OpenBabel04052409413D

 53 56  0  0  0  0  0  0  0  0999 V2000
   12.3114    4.7417   23.0699 C   0  0  0  0  0  0  0  0  0  0  0  0
   11.6961    3.3385   22.9482 C   0  0  0  0  0  0  0  0  0  0  0  0
   12.2450    1.0363   23.2784 C   0  0  0  0  0  0  0  0  0  0  0  0
   14.4615    4.5002   22.0911 C   0  0  0  0  0  0  0  0  0  0  0  0
   10.9448    0.5925   22.9382 C   0  0  0  0  0  0  0  0  0  0  0  0
   13.2690    0.0821   23.4223 C   0  0  0  0  0  0  0  0  0  0  0  0
    5.9834   -5.2099   21.1585 C   0  0  0  0  0  0  0  0  0  0  0  0
    6.2131   -5.1438   22.5927 C   0  0  0  0  0  0  0  0  0  0  0  0
    8.5308   -0.5241   21.3137 C   0  0  0  0  0  0  0  0  0  0  0  0
    5.6766   -6.1929   23.3693 C   0  0  0  0  0  0  0  0  0  0  0  0
    5.9040   -6.2479   24.7545 C   0  0  0  0  0  0  0  0  0  0  0  0
    6.6982   -5.2678   25.3716 C   0  0  0  0  0  0  0  0  0  0  0  0
    7.2368   -4.2167   24.6077 C   0  0  0  0  0  0  0  0  0  0  0  0
    8.8355   -2.3805   22.8634 C   0  0  0  0  0  0  0  0  0  0  0  0
    9.3224   -1.2326   22.3332 C   0  0  0  0  0  0  0  0  0  0  0  0
   10.6851   -0.7757   22.6908 C   0  0  0  0  0  0  0  0  0  0  0  0
   11.7349   -1.7099   22.8135 C   0  0  0  0  0  0  0  0  0  0  0  0
    6.5347   -0.5172   19.9538 C   0  0  0  0  0  0  0  0  0  0  0  0
   13.0191   -1.2820   23.1878 C   0  0  0  0  0  0  0  0  0  0  0  0
    6.9968   -0.3761   18.6283 C   0  0  0  0  0  0  0  0  0  0  0  0
    4.9658    0.4589   17.9221 C   0  0  0  0  0  0  0  0  0  0  0  0
    4.4324    0.4306   19.2246 C   0  0  0  0  0  0  0  0  0  0  0  0
    5.2301   -0.0849   20.2572 C   0  0  0  0  0  0  0  0  0  0  0  0
    6.8514   -2.2514   21.5776 C   0  0  0  0  0  0  0  0  0  0  0  0
    7.5364   -2.9293   22.5151 C   0  0  0  0  0  0  0  0  0  0  0  0
    6.9837   -4.1187   23.2193 C   0  0  0  0  0  0  0  0  0  0  0  0
    7.3514   -1.0998   20.9525 N   0  0  0  0  0  0  0  0  0  0  0  0
    6.2277    0.0985   17.6297 N   0  0  0  0  0  0  0  0  0  0  0  0
    5.7978   -5.2640   20.0194 N   0  0  0  0  0  0  0  0  0  0  0  0
    8.8875    0.5437   20.8127 O   0  0  0  0  0  0  0  0  0  0  0  0
   12.5743    2.3585   23.4851 O   0  0  0  0  0  0  0  0  0  0  0  0
   13.1626    5.0552   21.9768 O   0  0  0  0  0  0  0  0  0  0  0  0
   14.2893   -2.4338   23.3515 Cl  0  0  0  0  0  0  0  0  0  0  0  0
   12.8097    4.8826   24.0306 H   0  0  0  0  0  0  0  0  0  0  0  0
   11.4993    5.4686   23.0403 H   0  0  0  0  0  0  0  0  0  0  0  0
   11.4651    3.1177   21.9060 H   0  0  0  0  0  0  0  0  0  0  0  0
   10.7629    3.3232   23.5111 H   0  0  0  0  0  0  0  0  0  0  0  0
   15.0469    4.7540   21.2079 H   0  0  0  0  0  0  0  0  0  0  0  0
   14.9842    4.8918   22.9627 H   0  0  0  0  0  0  0  0  0  0  0  0
   14.4361    3.4174   22.1689 H   0  0  0  0  0  0  0  0  0  0  0  0
   10.1307    1.2972   22.8678 H   0  0  0  0  0  0  0  0  0  0  0  0
   14.2640    0.4023   23.6843 H   0  0  0  0  0  0  0  0  0  0  0  0
    5.0905   -6.9712   22.9028 H   0  0  0  0  0  0  0  0  0  0  0  0
    5.4875   -7.0535   25.3425 H   0  0  0  0  0  0  0  0  0  0  0  0
    6.8880   -5.3180   26.4337 H   0  0  0  0  0  0  0  0  0  0  0  0
    7.8207   -3.4622   25.1154 H   0  0  0  0  0  0  0  0  0  0  0  0
    9.4418   -2.9273   23.5700 H   0  0  0  0  0  0  0  0  0  0  0  0
   11.5632   -2.7588   22.6223 H   0  0  0  0  0  0  0  0  0  0  0  0
    7.9976   -0.6757   18.3540 H   0  0  0  0  0  0  0  0  0  0  0  0
    4.3656    0.7893   17.0893 H   0  0  0  0  0  0  0  0  0  0  0  0
    3.4265    0.7660   19.4239 H   0  0  0  0  0  0  0  0  0  0  0  0
    4.8480   -0.1610   21.2623 H   0  0  0  0  0  0  0  0  0  0  0  0
    5.8564   -2.5267   21.2574 H   0  0  0  0  0  0  0  0  0  0  0  0
  1  2  1  0  0  0  0
  1 32  1  0  0  0  0
  1 34  1  0  0  0  0
  1 35  1  0  0  0  0
  2 31  1  0  0  0  0
  2 36  1  0  0  0  0
  2 37  1  0  0  0  0
  3  5  2  0  0  0  0
  3  6  1  0  0  0  0
  3 31  1  0  0  0  0
  4 32  1  0  0  0  0
  4 38  1  0  0  0  0
  4 39  1  0  0  0  0
  4 40  1  0  0  0  0
  5 16  1  0  0  0  0
  5 41  1  0  0  0  0
  6 19  2  0  0  0  0
  6 42  1  0  0  0  0
  7  8  1  0  0  0  0
  7 29  3  0  0  0  0
  8 10  2  0  0  0  0
  8 26  1  0  0  0  0
  9 15  1  0  0  0  0
  9 27  1  0  0  0  0
  9 30  2  0  0  0  0
 10 11  1  0  0  0  0
 10 43  1  0  0  0  0
 11 12  2  0  0  0  0
 11 44  1  0  0  0  0
 12 13  1  0  0  0  0
 12 45  1  0  0  0  0
 13 26  2  0  0  0  0
 13 46  1  0  0  0  0
 14 15  2  0  0  0  0
 14 25  1  0  0  0  0
 14 47  1  0  0  0  0
 15 16  1  0  0  0  0
 16 17  2  0  0  0  0
 17 19  1  0  0  0  0
 17 48  1  0  0  0  0
 18 20  2  0  0  0  0
 18 23  1  0  0  0  0
 18 27  1  0  0  0  0
 19 33  1  0  0  0  0
 20 28  1  0  0  0  0
 20 49  1  0  0  0  0
 21 22  1  0  0  0  0
 21 28  2  0  0  0  0
 21 50  1  0  0  0  0
 22 23  2  0  0  0  0
 22 51  1  0  0  0  0
 23 52  1  0  0  0  0
 24 25  2  0  0  0  0
 24 27  1  0  0  0  0
 24 53  1  0  0  0  0
 25 26  1  0  0  0  0
M  END
$$$$
