7M91_ligand1
 OpenBabel04052409413D

 51 54  0  0  0  0  0  0  0  0999 V2000
    6.7843   -1.8284   21.5900 C   0  0  0  0  0  0  0  0  0  0  0  0
    4.7047    1.2302   19.2956 C   0  0  0  0  0  0  0  0  0  0  0  0
    5.2545    1.2445   17.9960 C   0  0  0  0  0  0  0  0  0  0  0  0
    7.0801    0.0001   18.6611 C   0  0  0  0  0  0  0  0  0  0  0  0
    8.5337   -0.1628   21.4100 C   0  0  0  0  0  0  0  0  0  0  0  0
    6.6096   -0.0640   19.9883 C   0  0  0  0  0  0  0  0  0  0  0  0
    5.9912   -4.6749   22.3336 C   0  0  0  0  0  0  0  0  0  0  0  0
    9.2572   -0.9053   22.4556 C   0  0  0  0  0  0  0  0  0  0  0  0
   10.6172   -0.4692   22.8445 C   0  0  0  0  0  0  0  0  0  0  0  0
   10.8754    0.8940   23.1204 C   0  0  0  0  0  0  0  0  0  0  0  0
    6.9061   -3.9845   24.4785 C   0  0  0  0  0  0  0  0  0  0  0  0
   11.8580    3.6836   22.9065 C   0  0  0  0  0  0  0  0  0  0  0  0
   11.6677   -1.4036   22.9368 C   0  0  0  0  0  0  0  0  0  0  0  0
   12.8380    4.1272   21.8166 C   0  0  0  0  0  0  0  0  0  0  0  0
   14.0019    4.9854   22.3170 C   0  0  0  0  0  0  0  0  0  0  0  0
   13.2127    0.3895   23.5365 C   0  0  0  0  0  0  0  0  0  0  0  0
    5.5034   -5.9486   24.3985 C   0  0  0  0  0  0  0  0  0  0  0  0
    8.7064   -2.0373   22.9669 C   0  0  0  0  0  0  0  0  0  0  0  0
   12.1797    1.3428   23.4263 C   0  0  0  0  0  0  0  0  0  0  0  0
   12.9582   -0.9747   23.2952 C   0  0  0  0  0  0  0  0  0  0  0  0
    5.3934    0.5585   20.3108 C   0  0  0  0  0  0  0  0  0  0  0  0
    7.3913   -2.5233   22.5689 C   0  0  0  0  0  0  0  0  0  0  0  0
    6.7550   -3.7082   23.1540 C   0  0  0  0  0  0  0  0  0  0  0  0
   14.8742    5.0782   21.3178 F   0  0  0  0  0  0  0  0  0  0  0  0
   13.5869    6.2080   22.6481 F   0  0  0  0  0  0  0  0  0  0  0  0
   14.6044    4.4247   23.3657 F   0  0  0  0  0  0  0  0  0  0  0  0
    7.3594   -0.7017   20.9954 N   0  0  0  0  0  0  0  0  0  0  0  0
    6.4129    0.6369   17.6790 N   0  0  0  0  0  0  0  0  0  0  0  0
    5.3976   -5.7324   23.0302 N   0  0  0  0  0  0  0  0  0  0  0  0
    6.3063   -5.0572   25.1061 N   0  0  0  0  0  0  0  0  0  0  0  0
    8.9417    0.8982   20.9299 O   0  0  0  0  0  0  0  0  0  0  0  0
    5.8475   -4.6292   21.1136 O   0  0  0  0  0  0  0  0  0  0  0  0
    4.9316   -6.8865   24.9485 O   0  0  0  0  0  0  0  0  0  0  0  0
   12.4832    2.6610   23.6853 O   0  0  0  0  0  0  0  0  0  0  0  0
   14.2233   -2.1336   23.4422 Cl  0  0  0  0  0  0  0  0  0  0  0  0
    5.8098   -2.0800   21.1980 H   0  0  0  0  0  0  0  0  0  0  0  0
    3.7795    1.7198   19.5422 H   0  0  0  0  0  0  0  0  0  0  0  0
    4.7682    1.7501   17.1783 H   0  0  0  0  0  0  0  0  0  0  0  0
    8.0164   -0.4596   18.3814 H   0  0  0  0  0  0  0  0  0  0  0  0
   10.0534    1.5939   23.1049 H   0  0  0  0  0  0  0  0  0  0  0  0
    7.4804   -3.3197   25.1088 H   0  0  0  0  0  0  0  0  0  0  0  0
   10.9244    3.3798   22.4383 H   0  0  0  0  0  0  0  0  0  0  0  0
   11.6133    4.5235   23.5562 H   0  0  0  0  0  0  0  0  0  0  0  0
   11.4910   -2.4485   22.7302 H   0  0  0  0  0  0  0  0  0  0  0  0
   12.3149    4.6849   21.0451 H   0  0  0  0  0  0  0  0  0  0  0  0
   13.2378    3.2441   21.3266 H   0  0  0  0  0  0  0  0  0  0  0  0
   14.2091    0.7116   23.7984 H   0  0  0  0  0  0  0  0  0  0  0  0
    9.2664   -2.6041   23.6963 H   0  0  0  0  0  0  0  0  0  0  0  0
    5.0085    0.5484   21.3186 H   0  0  0  0  0  0  0  0  0  0  0  0
    4.8578   -6.3999   22.4987 H   0  0  0  0  0  0  0  0  0  0  0  0
    6.4115   -5.2057   26.0997 H   0  0  0  0  0  0  0  0  0  0  0  0
  1 22  2  0  0  0  0
  1 27  1  0  0  0  0
  1 36  1  0  0  0  0
  2  3  2  0  0  0  0
  2 21  1  0  0  0  0
  2 37  1  0  0  0  0
  3 28  1  0  0  0  0
  3 38  1  0  0  0  0
  4  6  1  0  0  0  0
  4 28  2  0  0  0  0
  4 39  1  0  0  0  0
  5  8  1  0  0  0  0
  5 27  1  0  0  0  0
  5 31  2  0  0  0  0
  6 21  2  0  0  0  0
  6 27  1  0  0  0  0
  7 23  1  0  0  0  0
  7 29  1  0  0  0  0
  7 32  2  0  0  0  0
  8  9  1  0  0  0  0
  8 18  2  0  0  0  0
  9 10  2  0  0  0  0
  9 13  1  0  0  0  0
 10 19  1  0  0  0  0
 10 40  1  0  0  0  0
 11 23  2  0  0  0  0
 11 30  1  0  0  0  0
 11 41  1  0  0  0  0
 12 14  1  0  0  0  0
 12 34  1  0  0  0  0
 12 42  1  0  0  0  0
 12 43  1  0  0  0  0
 13 20  2  0  0  0  0
 13 44  1  0  0  0  0
 14 15  1  0  0  0  0
 14 45  1  0  0  0  0
 14 46  1  0  0  0  0
 15 24  1  0  0  0  0
 15 25  1  0  0  0  0
 15 26  1  0  0  0  0
 16 19  2  0  0  0  0
 16 20  1  0  0  0  0
 16 47  1  0  0  0  0
 17 29  1  0  0  0  0
 17 30  1  0  0  0  0
 17 33  2  0  0  0  0
 18 22  1  0  0  0  0
 18 48  1  0  0  0  0
 19 34  1  0  0  0  0
 20 35  1  0  0  0  0
 21 49  1  0  0  0  0
 22 23  1  0  0  0  0
 29 50  1  0  0  0  0
 30 51  1  0  0  0  0
M  END
$$$$
