7NT3_ligand
 OpenBabel04052409413D

 53 55  0  0  1  0  0  0  0  0999 V2000
    9.8337    4.2186   25.7548 C   0  0  0  0  0  0  0  0  0  0  0  0
    9.5576    1.2035   21.2634 O   0  0  0  0  0  0  0  0  0  0  0  0
   14.5967   -1.3754   24.3472 O   0  0  0  0  0  0  0  0  0  0  0  0
    6.4852    3.2868   23.7268 C   0  0  0  0  0  0  0  0  0  0  0  0
    6.0836    4.3189   22.6507 C   0  0  0  0  0  0  0  0  0  0  0  0
    7.0535    5.5025   22.5342 C   0  0  0  0  0  0  0  0  0  0  0  0
    7.5519    1.2246   22.5972 C   0  0  1  0  0  0  0  0  0  0  0  0
    8.8451    0.5752   22.0452 C   0  0  0  0  0  0  0  0  0  0  0  0
   10.2301   -1.4529   21.8650 C   0  0  0  0  0  0  0  0  0  0  0  0
   11.1793   -1.8504   22.9669 C   0  0  0  0  0  0  0  0  0  0  0  0
   10.7674   -2.8429   23.8894 C   0  0  0  0  0  0  0  0  0  0  0  0
   11.6427   -3.2950   24.8968 C   0  0  0  0  0  0  0  0  0  0  0  0
   12.9202   -2.7181   24.9562 C   0  0  0  0  0  0  0  0  0  0  0  0
    8.8729    3.4179   25.2592 C   0  0  0  0  0  0  0  0  0  0  0  0
    8.9072    2.9855   23.8660 C   0  0  0  0  0  0  0  0  0  0  0  0
   13.3181   -1.7363   24.0729 C   0  0  0  0  0  0  0  0  0  0  0  0
   12.4666   -1.2659   23.0583 C   0  0  0  0  0  0  0  0  0  0  0  0
    9.9705    2.9416   23.2522 O   0  0  0  0  0  0  0  0  0  0  0  0
    7.7088    2.5220   23.3761 N   0  0  0  0  0  0  0  0  0  0  0  0
    9.0914   -0.7006   22.3681 N   0  0  0  0  0  0  0  0  0  0  0  0
   15.0156   -2.2358   25.3760 C   0  0  0  0  0  0  0  0  0  0  0  0
   13.9322   -3.0079   25.8088 O   0  0  0  0  0  0  0  0  0  0  0  0
    6.5137    1.1450   21.4525 C   0  0  0  0  0  0  0  0  0  0  0  0
    5.1276    1.2889   21.7241 C   0  0  0  0  0  0  0  0  0  0  0  0
    4.1365    1.1763   20.7381 C   0  0  0  0  0  0  0  0  0  0  0  0
    4.4761    0.7802   19.4461 C   0  0  0  0  0  0  0  0  0  0  0  0
    5.8107    0.5588   19.1285 C   0  0  0  0  0  0  0  0  0  0  0  0
    6.1208    0.1229   17.8770 O   0  0  0  0  0  0  0  0  0  0  0  0
    6.8060    0.7724   20.0972 C   0  0  0  0  0  0  0  0  0  0  0  0
    9.8143    4.5224   26.7908 H   0  0  0  0  0  0  0  0  0  0  0  0
   10.6502    4.5829   25.1479 H   0  0  0  0  0  0  0  0  0  0  0  0
    5.6805    2.6171   23.9968 H   0  0  0  0  0  0  0  0  0  0  0  0
    6.5646    3.8647   24.6442 H   0  0  0  0  0  0  0  0  0  0  0  0
    5.0955    4.7071   22.9010 H   0  0  0  0  0  0  0  0  0  0  0  0
    5.9775    3.8538   21.6716 H   0  0  0  0  0  0  0  0  0  0  0  0
    6.6546    6.2580   21.8569 H   0  0  0  0  0  0  0  0  0  0  0  0
    7.2165    5.9814   23.5002 H   0  0  0  0  0  0  0  0  0  0  0  0
    8.0217    5.1890   22.1398 H   0  0  0  0  0  0  0  0  0  0  0  0
    7.2014    0.5392   23.3696 H   0  0  0  0  0  0  0  0  0  0  0  0
    9.8510   -2.3548   21.3842 H   0  0  0  0  0  0  0  0  0  0  0  0
   10.7810   -0.9120   21.1011 H   0  0  0  0  0  0  0  0  0  0  0  0
    9.7858   -3.2843   23.8068 H   0  0  0  0  0  0  0  0  0  0  0  0
   11.3489   -4.0717   25.5866 H   0  0  0  0  0  0  0  0  0  0  0  0
    8.0928    3.0790   25.9248 H   0  0  0  0  0  0  0  0  0  0  0  0
   12.7948   -0.5078   22.3618 H   0  0  0  0  0  0  0  0  0  0  0  0
    8.4498   -1.1820   22.9800 H   0  0  0  0  0  0  0  0  0  0  0  0
   15.4304   -1.6697   26.2025 H   0  0  0  0  0  0  0  0  0  0  0  0
   15.7757   -2.9077   24.9890 H   0  0  0  0  0  0  0  0  0  0  0  0
    4.7594    1.4613   22.7160 H   0  0  0  0  0  0  0  0  0  0  0  0
    3.1019    1.3575   20.9780 H   0  0  0  0  0  0  0  0  0  0  0  0
    3.7168    0.6536   18.6999 H   0  0  0  0  0  0  0  0  0  0  0  0
    7.0451    0.0148   17.7098 H   0  0  0  0  0  0  0  0  0  0  0  0
    7.8061    0.5840   19.7452 H   0  0  0  0  0  0  0  0  0  0  0  0
  1 14  2  0  0  0  0
  1 30  1  0  0  0  0
  1 31  1  0  0  0  0
  2  8  2  0  0  0  0
  3 16  1  0  0  0  0
  3 21  1  0  0  0  0
  4  5  1  0  0  0  0
  4 19  1  0  0  0  0
  4 32  1  0  0  0  0
  4 33  1  0  0  0  0
  5  6  1  0  0  0  0
  5 34  1  0  0  0  0
  5 35  1  0  0  0  0
  6 36  1  0  0  0  0
  6 37  1  0  0  0  0
  6 38  1  0  0  0  0
  7  8  1  0  0  0  0
  7 19  1  0  0  0  0
  7 23  1  0  0  0  0
  7 39  1  1  0  0  0
  8 20  1  0  0  0  0
  9 10  1  0  0  0  0
  9 20  1  0  0  0  0
  9 40  1  0  0  0  0
  9 41  1  0  0  0  0
 10 11  2  0  0  0  0
 10 17  1  0  0  0  0
 11 12  1  0  0  0  0
 11 42  1  0  0  0  0
 12 13  2  0  0  0  0
 12 43  1  0  0  0  0
 13 16  1  0  0  0  0
 13 22  1  0  0  0  0
 14 15  1  0  0  0  0
 14 44  1  0  0  0  0
 15 18  2  0  0  0  0
 15 19  1  0  0  0  0
 16 17  2  0  0  0  0
 17 45  1  0  0  0  0
 20 46  1  0  0  0  0
 21 22  1  0  0  0  0
 21 47  1  0  0  0  0
 21 48  1  0  0  0  0
 23 24  2  0  0  0  0
 23 29  1  0  0  0  0
 24 25  1  0  0  0  0
 24 49  1  0  0  0  0
 25 26  2  0  0  0  0
 25 50  1  0  0  0  0
 26 27  1  0  0  0  0
 26 51  1  0  0  0  0
 27 28  1  0  0  0  0
 27 29  2  0  0  0  0
 28 52  1  0  0  0  0
 29 53  1  0  0  0  0
M  END
$$$$
