7O46_ligand1
 OpenBabel04052409413D

 43 47  0  0  1  0  0  0  0  0999 V2000
   11.0042   -1.2630   23.4629 C   0  0  2  0  0  0  0  0  0  0  0  0
    4.5389    1.0660   19.3111 C   0  0  0  0  0  0  0  0  0  0  0  0
   12.3486   -0.5571   23.4726 C   0  0  0  0  0  0  0  0  0  0  0  0
   13.5841   -1.2646   22.8926 C   0  0  0  0  0  0  0  0  0  0  0  0
    6.5353   -0.0258   20.1183 C   0  0  0  0  0  0  0  0  0  0  0  0
   13.9597   -1.6652   24.3188 C   0  0  0  0  0  0  0  0  0  0  0  0
   13.0998   -0.4936   24.7982 C   0  0  0  0  0  0  0  0  0  0  0  0
   10.4259   -1.7178   22.1195 C   0  0  0  0  0  0  0  0  0  0  0  0
    8.5539   -0.0953   21.4478 C   0  0  0  0  0  0  0  0  0  0  0  0
    6.8525   -0.3462   18.7835 C   0  0  0  0  0  0  0  0  0  0  0  0
    4.9102    0.6118   18.0247 C   0  0  0  0  0  0  0  0  0  0  0  0
    8.0018   -1.9454   22.6825 N   0  0  0  0  0  0  0  0  0  0  0  0
    7.3358   -0.5492   21.1490 N   0  0  0  0  0  0  0  0  0  0  0  0
    9.7263   -0.4542   23.7521 C   0  0  0  0  0  0  0  0  0  0  0  0
    6.0515   -0.0438   17.7486 N   0  0  0  0  0  0  0  0  0  0  0  0
    5.9274   -2.2572   21.7794 O   0  0  0  0  0  0  0  0  0  0  0  0
    6.9908   -1.6416   21.8607 C   0  0  0  0  0  0  0  0  0  0  0  0
    9.1113   -1.0395   22.4828 C   0  0  1  0  0  0  0  0  0  0  0  0
    9.1267    0.8985   20.9976 O   0  0  0  0  0  0  0  0  0  0  0  0
    3.3636    1.8153   19.5438 C   0  0  0  0  0  0  0  0  0  0  0  0
    3.0359    2.2525   20.8373 C   0  0  0  0  0  0  0  0  0  0  0  0
    3.8724    1.9244   21.9166 C   0  0  0  0  0  0  0  0  0  0  0  0
    5.0357    1.1631   21.6989 C   0  0  0  0  0  0  0  0  0  0  0  0
    5.3792    0.7389   20.3952 C   0  0  0  0  0  0  0  0  0  0  0  0
   11.0407   -2.1291   24.1268 H   0  0  0  0  0  0  0  0  0  0  0  0
   12.2455    0.4323   23.0266 H   0  0  0  0  0  0  0  0  0  0  0  0
   14.3000   -0.5709   22.4496 H   0  0  0  0  0  0  0  0  0  0  0  0
   13.3707   -2.1025   22.2274 H   0  0  0  0  0  0  0  0  0  0  0  0
   15.0149   -1.5835   24.5716 H   0  0  0  0  0  0  0  0  0  0  0  0
   13.5588   -2.6423   24.5859 H   0  0  0  0  0  0  0  0  0  0  0  0
   12.4910   -0.6888   25.6781 H   0  0  0  0  0  0  0  0  0  0  0  0
   13.6520    0.4345   24.8890 H   0  0  0  0  0  0  0  0  0  0  0  0
   10.3567   -2.7983   22.0226 H   0  0  0  0  0  0  0  0  0  0  0  0
   10.9342   -1.2714   21.2645 H   0  0  0  0  0  0  0  0  0  0  0  0
    7.7430   -0.9083   18.5431 H   0  0  0  0  0  0  0  0  0  0  0  0
    4.2712    0.7481   17.1722 H   0  0  0  0  0  0  0  0  0  0  0  0
    8.0176   -2.7225   23.3257 H   0  0  0  0  0  0  0  0  0  0  0  0
    9.8775    0.6254   23.7088 H   0  0  0  0  0  0  0  0  0  0  0  0
    9.2267   -0.7472   24.6772 H   0  0  0  0  0  0  0  0  0  0  0  0
    2.7083    2.0990   18.7415 H   0  0  0  0  0  0  0  0  0  0  0  0
    2.1442    2.8412   20.9983 H   0  0  0  0  0  0  0  0  0  0  0  0
    3.6235    2.2606   22.9129 H   0  0  0  0  0  0  0  0  0  0  0  0
    5.6663    0.9247   22.5418 H   0  0  0  0  0  0  0  0  0  0  0  0
  1  3  1  0  0  0  0
  1  8  1  0  0  0  0
  1 14  1  0  0  0  0
  1 25  1  1  0  0  0
  2 11  1  0  0  0  0
  2 20  2  0  0  0  0
  2 24  1  0  0  0  0
  3  4  1  0  0  0  0
  3  7  1  0  0  0  0
  3 26  1  0  0  0  0
  4  6  1  0  0  0  0
  4 27  1  0  0  0  0
  4 28  1  0  0  0  0
  5 10  2  0  0  0  0
  5 13  1  0  0  0  0
  5 24  1  0  0  0  0
  6  7  1  0  0  0  0
  6 29  1  0  0  0  0
  6 30  1  0  0  0  0
  7 31  1  0  0  0  0
  7 32  1  0  0  0  0
  8 18  1  0  0  0  0
  8 33  1  0  0  0  0
  8 34  1  0  0  0  0
  9 13  1  0  0  0  0
  9 19  2  0  0  0  0
 10 15  1  0  0  0  0
 10 35  1  0  0  0  0
 11 15  2  0  0  0  0
 11 36  1  0  0  0  0
 12 17  1  0  0  0  0
 12 18  1  0  0  0  0
 12 37  1  0  0  0  0
 13 17  1  0  0  0  0
 14 18  1  0  0  0  0
 14 38  1  0  0  0  0
 14 39  1  0  0  0  0
 16 17  2  0  0  0  0
 18  9  1  6  0  0  0
 20 21  1  0  0  0  0
 20 40  1  0  0  0  0
 21 22  2  0  0  0  0
 21 41  1  0  0  0  0
 22 23  1  0  0  0  0
 22 42  1  0  0  0  0
 23 24  2  0  0  0  0
 23 43  1  0  0  0  0
M  END
$$$$
