7RME_ligand
 OpenBabel04052409413D

 40 42  0  0  0  0  0  0  0  0999 V2000
    5.2075   -0.0209   18.8649 C   0  0  0  0  0  3  0  0  0  0  0  0
    5.9254   -2.7683   22.6043 C   0  0  0  0  0  0  0  0  0  0  0  0
    9.4067   -2.0785   23.9238 C   0  0  0  0  0  0  0  0  0  0  0  0
    6.4026   -0.3387   22.4250 C   0  0  0  0  0  0  0  0  0  0  0  0
    7.9021   -0.6342   22.5965 C   0  0  0  0  0  0  0  0  0  0  0  0
    6.9894   -2.6811   23.7182 C   0  0  0  0  0  0  0  0  0  0  0  0
    4.6626   -0.2389   20.1225 C   0  0  0  0  0  0  0  0  0  0  0  0
    9.5710   -2.9415   25.0337 C   0  0  0  0  0  0  0  0  0  0  0  0
   10.8352   -3.1357   25.6194 C   0  0  0  0  0  0  0  0  0  0  0  0
   11.9601   -2.4478   25.1339 C   0  0  0  0  0  0  0  0  0  0  0  0
   11.8198   -1.5601   24.0410 C   0  0  0  0  0  0  0  0  0  0  0  0
   10.5507   -1.3992   23.4388 C   0  0  0  0  0  0  0  0  0  0  0  0
    3.4801    1.7918   20.0403 C   0  0  0  0  0  0  0  0  0  0  0  0
    4.9518   -1.5316   20.7320 C   0  0  0  0  0  0  0  0  0  0  0  0
    4.8868    1.2120   18.1613 C   0  0  0  0  0  0  0  0  0  0  0  0
   13.0176   -0.7923   23.5039 C   0  0  0  0  0  0  0  0  0  0  0  0
   13.6033   -0.1056   24.4834 F   0  0  0  0  0  0  0  0  0  0  0  0
   13.8872   -1.6547   22.9835 F   0  0  0  0  0  0  0  0  0  0  0  0
   12.6726    0.0759   22.5551 F   0  0  0  0  0  0  0  0  0  0  0  0
    3.8266    0.6581   20.7123 N   0  0  0  0  0  0  0  0  0  0  0  0
    4.0274    2.0223   18.8218 N   0  0  0  0  0  0  0  0  0  0  0  0
    5.6996   -1.5098   21.8690 N   0  0  0  0  0  0  0  0  0  0  0  0
    8.1471   -1.8886   23.3078 N   0  0  0  0  0  0  0  0  0  0  0  0
    2.6913    2.6259   20.4774 O   0  0  0  0  0  0  0  0  0  0  0  0
    5.3432    1.5150   17.0627 O   0  0  0  0  0  0  0  0  0  0  0  0
    4.5127   -2.5870   20.2646 O   0  0  0  0  0  0  0  0  0  0  0  0
   13.4924   -2.7173   25.8924 Cl  0  0  0  0  0  0  0  0  0  0  0  0
    5.8462   -0.7556   18.3944 H   0  0  0  0  0  0  0  0  0  0  0  0
    4.9847   -3.1331   23.0166 H   0  0  0  0  0  0  0  0  0  0  0  0
    6.2716   -3.5250   21.8973 H   0  0  0  0  0  0  0  0  0  0  0  0
    6.3123    0.5652   21.8254 H   0  0  0  0  0  0  0  0  0  0  0  0
    5.9559   -0.0991   23.3905 H   0  0  0  0  0  0  0  0  0  0  0  0
    8.3704    0.1955   23.1255 H   0  0  0  0  0  0  0  0  0  0  0  0
    8.3702   -0.6985   21.6123 H   0  0  0  0  0  0  0  0  0  0  0  0
    7.2781   -3.7001   23.9742 H   0  0  0  0  0  0  0  0  0  0  0  0
    6.5587   -2.2319   24.6130 H   0  0  0  0  0  0  0  0  0  0  0  0
    8.7384   -3.4728   25.4678 H   0  0  0  0  0  0  0  0  0  0  0  0
   10.9367   -3.8134   26.4548 H   0  0  0  0  0  0  0  0  0  0  0  0
   10.4640   -0.7434   22.5877 H   0  0  0  0  0  0  0  0  0  0  0  0
    3.7749    2.8886   18.3648 H   0  0  0  0  0  0  0  0  0  0  0  0
  1  7  1  0  0  0  0
  1 15  1  0  0  0  0
  1 28  1  0  0  0  0
  2  6  1  0  0  0  0
  2 22  1  0  0  0  0
  2 29  1  0  0  0  0
  2 30  1  0  0  0  0
  3  8  2  0  0  0  0
  3 12  1  0  0  0  0
  3 23  1  0  0  0  0
  4  5  1  0  0  0  0
  4 22  1  0  0  0  0
  4 31  1  0  0  0  0
  4 32  1  0  0  0  0
  5 23  1  0  0  0  0
  5 33  1  0  0  0  0
  5 34  1  0  0  0  0
  6 23  1  0  0  0  0
  6 35  1  0  0  0  0
  6 36  1  0  0  0  0
  7 14  1  0  0  0  0
  7 20  2  0  0  0  0
  8  9  1  0  0  0  0
  8 37  1  0  0  0  0
  9 10  2  0  0  0  0
  9 38  1  0  0  0  0
 10 11  1  0  0  0  0
 10 27  1  0  0  0  0
 11 12  2  0  0  0  0
 11 16  1  0  0  0  0
 12 39  1  0  0  0  0
 13 20  1  0  0  0  0
 13 21  1  0  0  0  0
 13 24  2  0  0  0  0
 14 22  1  0  0  0  0
 14 26  2  0  0  0  0
 15 21  1  0  0  0  0
 15 25  2  0  0  0  0
 16 17  1  0  0  0  0
 16 18  1  0  0  0  0
 16 19  1  0  0  0  0
 21 40  1  0  0  0  0
M  END
$$$$
