7RMT_ligand
 OpenBabel04052409413D

 39 41  0  0  0  0  0  0  0  0999 V2000
    7.3889   -2.9600   22.9362 C   0  0  0  0  0  0  0  0  0  0  0  0
    5.9187   -2.4879   22.8789 C   0  0  0  0  0  0  0  0  0  0  0  0
    4.7421   -0.1802   20.1443 C   0  0  0  0  0  0  0  0  0  0  0  0
    9.5893   -2.0874   23.6486 C   0  0  0  0  0  0  0  0  0  0  0  0
    9.7632   -2.8451   24.8260 C   0  0  0  0  0  0  0  0  0  0  0  0
   11.0443   -3.0330   25.3792 C   0  0  0  0  0  0  0  0  0  0  0  0
   12.0198   -1.7277   23.5707 C   0  0  0  0  0  0  0  0  0  0  0  0
   10.7375   -1.5558   23.0192 C   0  0  0  0  0  0  0  0  0  0  0  0
    3.5800    1.8638   20.0373 C   0  0  0  0  0  0  0  0  0  0  0  0
    4.9488    1.2266   18.1496 C   0  0  0  0  0  0  0  0  0  0  0  0
    5.0423   -1.4478   20.7999 C   0  0  0  0  0  0  0  0  0  0  0  0
    5.2659    0.0012   18.8737 C   0  0  0  0  0  3  0  0  0  0  0  0
   12.1856   -2.4643   24.7695 C   0  0  0  0  0  0  0  0  0  0  0  0
   13.5201   -2.6523   25.3929 C   0  0  0  0  0  0  0  0  0  0  0  0
    6.6103   -0.2217   22.3505 C   0  0  0  0  0  0  0  0  0  0  0  0
    8.0843   -0.6570   22.3058 C   0  0  0  0  0  0  0  0  0  0  0  0
    3.9272    0.7397   20.7271 N   0  0  0  0  0  0  0  0  0  0  0  0
    4.1091    2.0588   18.8047 N   0  0  0  0  0  0  0  0  0  0  0  0
    5.7641   -1.3567   21.9479 N   0  0  0  0  0  0  0  0  0  0  0  0
    8.2955   -1.8321   23.1469 N   0  0  0  0  0  0  0  0  0  0  0  0
    2.8089    2.7148   20.4672 O   0  0  0  0  0  0  0  0  0  0  0  0
    5.3954    1.5064   17.0431 O   0  0  0  0  0  0  0  0  0  0  0  0
   13.7333   -3.3706   26.3695 O   0  0  0  0  0  0  0  0  0  0  0  0
    4.6166   -2.5236   20.3738 O   0  0  0  0  0  0  0  0  0  0  0  0
   13.3517   -0.9977   22.7449 Cl  0  0  0  0  0  0  0  0  0  0  0  0
    7.6583   -3.4518   22.0024 H   0  0  0  0  0  0  0  0  0  0  0  0
    7.4914   -3.7058   23.7224 H   0  0  0  0  0  0  0  0  0  0  0  0
    5.6022   -2.1593   23.8688 H   0  0  0  0  0  0  0  0  0  0  0  0
    5.2693   -3.3290   22.6338 H   0  0  0  0  0  0  0  0  0  0  0  0
    8.9095   -3.2611   25.3407 H   0  0  0  0  0  0  0  0  0  0  0  0
   11.1392   -3.6054   26.2905 H   0  0  0  0  0  0  0  0  0  0  0  0
   10.6462   -0.9903   22.1040 H   0  0  0  0  0  0  0  0  0  0  0  0
    5.8934   -0.7480   18.4108 H   0  0  0  0  0  0  0  0  0  0  0  0
   14.3315   -2.1016   24.9219 H   0  0  0  0  0  0  0  0  0  0  0  0
    6.4941    0.6668   21.7319 H   0  0  0  0  0  0  0  0  0  0  0  0
    6.3374    0.0859   23.3624 H   0  0  0  0  0  0  0  0  0  0  0  0
    8.7080    0.1668   22.6501 H   0  0  0  0  0  0  0  0  0  0  0  0
    8.3802   -0.8863   21.2805 H   0  0  0  0  0  0  0  0  0  0  0  0
    3.8616    2.9205   18.3345 H   0  0  0  0  0  0  0  0  0  0  0  0
  1  2  1  0  0  0  0
  1 20  1  0  0  0  0
  1 26  1  0  0  0  0
  1 27  1  0  0  0  0
  2 19  1  0  0  0  0
  2 28  1  0  0  0  0
  2 29  1  0  0  0  0
  3 11  1  0  0  0  0
  3 12  1  0  0  0  0
  3 17  2  0  0  0  0
  4  5  2  0  0  0  0
  4  8  1  0  0  0  0
  4 20  1  0  0  0  0
  5  6  1  0  0  0  0
  5 30  1  0  0  0  0
  6 13  2  0  0  0  0
  6 31  1  0  0  0  0
  7  8  2  0  0  0  0
  7 13  1  0  0  0  0
  7 25  1  0  0  0  0
  8 32  1  0  0  0  0
  9 17  1  0  0  0  0
  9 18  1  0  0  0  0
  9 21  2  0  0  0  0
 10 12  1  0  0  0  0
 10 18  1  0  0  0  0
 10 22  2  0  0  0  0
 11 19  1  0  0  0  0
 11 24  2  0  0  0  0
 12 33  1  0  0  0  0
 13 14  1  0  0  0  0
 14 23  2  0  0  0  0
 14 34  1  0  0  0  0
 15 16  1  0  0  0  0
 15 19  1  0  0  0  0
 15 35  1  0  0  0  0
 15 36  1  0  0  0  0
 16 20  1  0  0  0  0
 16 37  1  0  0  0  0
 16 38  1  0  0  0  0
 18 39  1  0  0  0  0
M  END
$$$$
