7RMZ_ligand
 OpenBabel04052409413D

 40 42  0  0  0  0  0  0  0  0999 V2000
    4.8797    1.1634   18.0262 C   0  0  0  0  0  0  0  0  0  0  0  0
    5.1892   -0.0273   18.8074 C   0  0  0  0  0  3  0  0  0  0  0  0
   13.4036   -2.3995   25.4390 C   0  0  0  0  0  0  0  0  0  0  0  0
   12.0195   -2.1942   24.8328 C   0  0  0  0  0  0  0  0  0  0  0  0
   10.9296   -2.9728   25.2749 C   0  0  0  0  0  0  0  0  0  0  0  0
   11.7981   -1.2170   23.8342 C   0  0  0  0  0  0  0  0  0  0  0  0
   10.5130   -1.0455   23.2839 C   0  0  0  0  0  0  0  0  0  0  0  0
    3.3598    1.8045   19.7899 C   0  0  0  0  0  0  0  0  0  0  0  0
    4.5873   -0.1859   20.0472 C   0  0  0  0  0  0  0  0  0  0  0  0
    9.4101   -1.8163   23.7287 C   0  0  0  0  0  0  0  0  0  0  0  0
    9.6442   -2.7781   24.7383 C   0  0  0  0  0  0  0  0  0  0  0  0
    4.8757   -1.4210   20.7636 C   0  0  0  0  0  0  0  0  0  0  0  0
    6.3407   -0.1033   22.3500 C   0  0  0  0  0  0  0  0  0  0  0  0
    7.8450   -0.4313   22.3993 C   0  0  0  0  0  0  0  0  0  0  0  0
    7.2746   -2.7867   22.9299 C   0  0  0  0  0  0  0  0  0  0  0  0
    5.7834   -2.4017   22.8543 C   0  0  0  0  0  0  0  0  0  0  0  0
   14.2876   -2.6472   24.4751 F   0  0  0  0  0  0  0  0  0  0  0  0
   13.7633   -1.2984   26.0946 F   0  0  0  0  0  0  0  0  0  0  0  0
   13.4329   -3.4185   26.2985 F   0  0  0  0  0  0  0  0  0  0  0  0
    3.7032    0.7214   20.5416 N   0  0  0  0  0  0  0  0  0  0  0  0
    3.9659    1.9817   18.5929 N   0  0  0  0  0  0  0  0  0  0  0  0
    5.5867   -1.2890   21.9141 N   0  0  0  0  0  0  0  0  0  0  0  0
    8.1062   -1.6148   23.2163 N   0  0  0  0  0  0  0  0  0  0  0  0
    2.5240    2.6342   20.1360 O   0  0  0  0  0  0  0  0  0  0  0  0
    5.3911    1.4326   16.9458 O   0  0  0  0  0  0  0  0  0  0  0  0
    4.4493   -2.5124   20.3784 O   0  0  0  0  0  0  0  0  0  0  0  0
   13.0778   -0.1988   23.2758 Cl  0  0  0  0  0  0  0  0  0  0  0  0
    5.8682   -0.7677   18.4078 H   0  0  0  0  0  0  0  0  0  0  0  0
   11.0629   -3.7191   26.0435 H   0  0  0  0  0  0  0  0  0  0  0  0
   10.3974   -0.2977   22.5131 H   0  0  0  0  0  0  0  0  0  0  0  0
    8.8374   -3.3686   25.1426 H   0  0  0  0  0  0  0  0  0  0  0  0
    6.1996    0.7746   21.7217 H   0  0  0  0  0  0  0  0  0  0  0  0
    5.9925    0.1879   23.3430 H   0  0  0  0  0  0  0  0  0  0  0  0
    8.3672    0.4270   22.8218 H   0  0  0  0  0  0  0  0  0  0  0  0
    8.2334   -0.5926   21.3928 H   0  0  0  0  0  0  0  0  0  0  0  0
    7.5998   -3.2180   21.9832 H   0  0  0  0  0  0  0  0  0  0  0  0
    7.3899   -3.5708   23.6751 H   0  0  0  0  0  0  0  0  0  0  0  0
    5.4341   -2.0886   23.8394 H   0  0  0  0  0  0  0  0  0  0  0  0
    5.1887   -3.2808   22.6024 H   0  0  0  0  0  0  0  0  0  0  0  0
    3.7187    2.8193   18.0796 H   0  0  0  0  0  0  0  0  0  0  0  0
  1  2  1  0  0  0  0
  1 21  1  0  0  0  0
  1 25  2  0  0  0  0
  2  9  1  0  0  0  0
  2 28  1  0  0  0  0
  3  4  1  0  0  0  0
  3 17  1  0  0  0  0
  3 18  1  0  0  0  0
  3 19  1  0  0  0  0
  4  5  2  0  0  0  0
  4  6  1  0  0  0  0
  5 11  1  0  0  0  0
  5 29  1  0  0  0  0
  6  7  2  0  0  0  0
  6 27  1  0  0  0  0
  7 10  1  0  0  0  0
  7 30  1  0  0  0  0
  8 20  1  0  0  0  0
  8 21  1  0  0  0  0
  8 24  2  0  0  0  0
  9 12  1  0  0  0  0
  9 20  2  0  0  0  0
 10 11  2  0  0  0  0
 10 23  1  0  0  0  0
 11 31  1  0  0  0  0
 12 22  1  0  0  0  0
 12 26  2  0  0  0  0
 13 14  1  0  0  0  0
 13 22  1  0  0  0  0
 13 32  1  0  0  0  0
 13 33  1  0  0  0  0
 14 23  1  0  0  0  0
 14 34  1  0  0  0  0
 14 35  1  0  0  0  0
 15 16  1  0  0  0  0
 15 23  1  0  0  0  0
 15 36  1  0  0  0  0
 15 37  1  0  0  0  0
 16 22  1  0  0  0  0
 16 38  1  0  0  0  0
 16 39  1  0  0  0  0
 21 40  1  0  0  0  0
M  END
$$$$
