7S4B_ligand1
 OpenBabel04052409413D

 37 39  0  0  1  0  0  0  0  0999 V2000
    9.5418   -1.2244   22.9143 C   0  0  1  0  0  0  0  0  0  0  0  0
   11.9780   -1.5843   22.3128 C   0  0  0  0  0  0  0  0  0  0  0  0
   13.3264   -1.1905   22.3173 C   0  0  0  0  0  0  0  0  0  0  0  0
   13.7064   -0.0028   22.9673 C   0  0  0  0  0  0  0  0  0  0  0  0
    6.9138   -0.3104   20.3432 C   0  0  0  0  0  0  0  0  0  0  0  0
    4.9376    1.0234   19.8719 C   0  0  0  0  0  0  0  0  0  0  0  0
    5.1435    0.7231   18.5094 C   0  0  0  0  0  0  0  0  0  0  0  0
    5.6383    0.7751   22.1919 C   0  0  0  0  0  0  0  0  0  0  0  0
    3.6511    2.0818   21.6540 C   0  0  0  0  0  0  0  0  0  0  0  0
    3.8392    1.8004   20.2901 C   0  0  0  0  0  0  0  0  0  0  0  0
   11.0027   -0.7964   22.9614 C   0  0  0  0  0  0  0  0  0  0  0  0
    7.0110   -0.5520   18.9602 C   0  0  0  0  0  0  0  0  0  0  0  0
    4.5517    1.5691   22.6045 C   0  0  0  0  0  0  0  0  0  0  0  0
   12.7468    0.7792   23.6329 C   0  0  0  0  0  0  0  0  0  0  0  0
   11.3987    0.3814   23.6354 C   0  0  0  0  0  0  0  0  0  0  0  0
    8.8911   -1.2585   24.3089 C   0  0  0  0  0  0  0  0  0  0  0  0
    8.7452   -0.3256   21.9575 C   0  0  0  0  0  0  0  0  0  0  0  0
    5.8487    0.4998   20.8198 C   0  0  0  0  0  0  0  0  0  0  0  0
   14.2473   -1.9395   21.6705 F   0  0  0  0  0  0  0  0  0  0  0  0
    6.1455   -0.0511   18.0604 N   0  0  0  0  0  0  0  0  0  0  0  0
    7.8354   -0.9524   21.1982 N   0  0  0  0  0  0  0  0  0  0  0  0
    8.9435    0.8884   21.8983 O   0  0  0  0  0  0  0  0  0  0  0  0
    9.5110   -2.2418   22.5200 H   0  0  0  0  0  0  0  0  0  0  0  0
   11.6955   -2.4874   21.7966 H   0  0  0  0  0  0  0  0  0  0  0  0
   14.7319    0.3204   22.9383 H   0  0  0  0  0  0  0  0  0  0  0  0
    4.4605    1.0697   17.7499 H   0  0  0  0  0  0  0  0  0  0  0  0
    6.2986    0.3795   22.9484 H   0  0  0  0  0  0  0  0  0  0  0  0
    2.8107    2.6818   21.9718 H   0  0  0  0  0  0  0  0  0  0  0  0
    3.1244    2.1781   19.5760 H   0  0  0  0  0  0  0  0  0  0  0  0
    7.8014   -1.1683   18.5593 H   0  0  0  0  0  0  0  0  0  0  0  0
    4.4043    1.7775   23.6545 H   0  0  0  0  0  0  0  0  0  0  0  0
   13.0408    1.6942   24.1231 H   0  0  0  0  0  0  0  0  0  0  0  0
   10.6684    1.0002   24.1354 H   0  0  0  0  0  0  0  0  0  0  0  0
    7.8681   -1.6310   24.2552 H   0  0  0  0  0  0  0  0  0  0  0  0
    9.4427   -1.9186   24.9781 H   0  0  0  0  0  0  0  0  0  0  0  0
    8.8538   -0.2720   24.7725 H   0  0  0  0  0  0  0  0  0  0  0  0
    7.8263   -1.9624   21.2057 H   0  0  0  0  0  0  0  0  0  0  0  0
  1 11  1  0  0  0  0
  1 16  1  0  0  0  0
  1 17  1  0  0  0  0
  1 23  1  6  0  0  0
  2  3  2  0  0  0  0
  2 11  1  0  0  0  0
  2 24  1  0  0  0  0
  3  4  1  0  0  0  0
  3 19  1  0  0  0  0
  4 14  2  0  0  0  0
  4 25  1  0  0  0  0
  5 12  2  0  0  0  0
  5 18  1  0  0  0  0
  5 21  1  0  0  0  0
  6  7  1  0  0  0  0
  6 10  2  0  0  0  0
  6 18  1  0  0  0  0
  7 20  2  0  0  0  0
  7 26  1  0  0  0  0
  8 13  1  0  0  0  0
  8 18  2  0  0  0  0
  8 27  1  0  0  0  0
  9 10  1  0  0  0  0
  9 13  2  0  0  0  0
  9 28  1  0  0  0  0
 10 29  1  0  0  0  0
 11 15  2  0  0  0  0
 12 20  1  0  0  0  0
 12 30  1  0  0  0  0
 13 31  1  0  0  0  0
 14 15  1  0  0  0  0
 14 32  1  0  0  0  0
 15 33  1  0  0  0  0
 16 34  1  0  0  0  0
 16 35  1  0  0  0  0
 16 36  1  0  0  0  0
 17 21  1  0  0  0  0
 17 22  2  0  0  0  0
 21 37  1  0  0  0  0
M  END
$$$$
