7VIC_ligand1
 OpenBabel04052409413D

 56 60  0  0  1  0  0  0  0  0999 V2000
    6.1105   -1.0500   20.8156 O   0  0  0  0  0  0  0  0  0  0  0  0
    7.2456   -1.0162   21.2861 C   0  0  0  0  0  0  0  0  0  0  0  0
    7.6929   -0.2742   22.5510 C   0  0  2  0  0  0  0  0  0  0  0  0
    6.8673    0.9842   23.0209 C   0  0  2  0  0  0  0  0  0  0  0  0
    6.7931    1.9694   22.0086 O   0  0  0  0  0  0  0  0  0  0  0  0
    7.5482    1.5032   24.1357 O   0  0  0  0  0  0  0  0  0  0  0  0
    7.6661    0.6206   25.2662 C   0  0  0  0  0  0  0  0  0  0  0  0
    5.4279    0.6863   23.5234 C   0  0  1  0  0  0  0  0  0  0  0  0
    4.5076    0.4050   22.4847 O   0  0  0  0  0  0  0  0  0  0  0  0
    5.4737   -0.4576   24.5784 C   0  0  2  0  0  0  0  0  0  0  0  0
    4.4146   -0.3030   25.7378 C   0  0  0  0  0  0  0  0  0  0  0  0
    2.9851   -0.3792   25.1609 C   0  0  0  0  0  0  0  0  0  0  0  0
    4.4735    1.0246   26.5393 C   0  0  0  0  0  0  0  0  0  0  0  0
    4.5786   -1.4866   26.7098 C   0  0  0  0  0  0  0  0  0  0  0  0
    5.9941   -1.5734   27.2806 C   0  0  0  0  0  0  0  0  0  0  0  0
    8.4275   -1.7626   20.6994 C   0  0  2  0  0  0  0  0  0  0  0  0
    8.1548   -3.2774   20.6882 C   0  0  0  0  0  0  0  0  0  0  0  0
    9.6217   -1.2735   21.5664 C   0  0  1  0  0  0  0  0  0  0  0  0
    9.1568    0.0733   22.1496 C   0  0  1  0  0  0  0  0  0  0  0  0
    9.2879    1.0855   21.1649 O   0  0  0  0  0  0  0  0  0  0  0  0
    9.9791   -2.2029   22.7436 C   0  0  0  0  0  0  0  0  0  0  0  0
    9.0893   -1.9770   23.9839 C   0  0  0  0  0  0  0  0  0  0  0  0
    7.6884   -1.3274   23.7284 C   0  0  1  0  0  0  0  0  0  0  0  0
    6.9688   -0.7424   24.9933 C   0  0  1  0  0  0  0  0  0  0  0  0
    7.0295   -1.7757   26.1715 C   0  0  1  0  0  0  0  0  0  0  0  0
    8.2907   -1.8300   26.8116 O   0  0  0  0  0  0  0  0  0  0  0  0
    6.1281    2.5964   22.2544 H   0  0  0  0  0  0  0  0  0  0  0  0
    7.2793    1.1201   26.1477 H   0  0  0  0  0  0  0  0  0  0  0  0
    8.7279    0.4899   25.4709 H   0  0  0  0  0  0  0  0  0  0  0  0
    5.0796    1.6132   23.9735 H   0  0  0  0  0  0  0  0  0  0  0  0
    4.8983   -0.2327   21.9012 H   0  0  0  0  0  0  0  0  0  0  0  0
    5.1579   -1.3654   24.0610 H   0  0  0  0  0  0  0  0  0  0  0  0
    2.2326   -0.3541   25.9499 H   0  0  0  0  0  0  0  0  0  0  0  0
    2.7680    0.4480   24.4854 H   0  0  0  0  0  0  0  0  0  0  0  0
    2.8327   -1.3013   24.6104 H   0  0  0  0  0  0  0  0  0  0  0  0
    3.7030    1.0337   27.3095 H   0  0  0  0  0  0  0  0  0  0  0  0
    5.4089    1.1849   27.0632 H   0  0  0  0  0  0  0  0  0  0  0  0
    4.2871    1.9012   25.9235 H   0  0  0  0  0  0  0  0  0  0  0  0
    4.3426   -2.4243   26.2012 H   0  0  0  0  0  0  0  0  0  0  0  0
    3.8638   -1.4052   27.5298 H   0  0  0  0  0  0  0  0  0  0  0  0
    6.0445   -2.4104   27.9781 H   0  0  0  0  0  0  0  0  0  0  0  0
    6.2300   -0.6891   27.8716 H   0  0  0  0  0  0  0  0  0  0  0  0
    8.5626   -1.4016   19.6807 H   0  0  0  0  0  0  0  0  0  0  0  0
    9.0351   -3.8340   20.3736 H   0  0  0  0  0  0  0  0  0  0  0  0
    7.8540   -3.6575   21.6652 H   0  0  0  0  0  0  0  0  0  0  0  0
    7.3446   -3.5118   19.9990 H   0  0  0  0  0  0  0  0  0  0  0  0
   10.5096   -1.1437   20.9565 H   0  0  0  0  0  0  0  0  0  0  0  0
    9.7603    0.3808   23.0048 H   0  0  0  0  0  0  0  0  0  0  0  0
    8.7369    1.8125   21.4227 H   0  0  0  0  0  0  0  0  0  0  0  0
   11.0108   -2.0061   23.0294 H   0  0  0  0  0  0  0  0  0  0  0  0
    9.9887   -3.2526   22.4561 H   0  0  0  0  0  0  0  0  0  0  0  0
    9.6590   -1.3376   24.6555 H   0  0  0  0  0  0  0  0  0  0  0  0
    8.9836   -2.9249   24.5117 H   0  0  0  0  0  0  0  0  0  0  0  0
    7.0795   -2.1826   23.4283 H   0  0  0  0  0  0  0  0  0  0  0  0
    6.8477   -2.7670   25.7539 H   0  0  0  0  0  0  0  0  0  0  0  0
    8.4035   -1.0589   27.3515 H   0  0  0  0  0  0  0  0  0  0  0  0
  1  2  2  0  0  0  0
  2 16  1  0  0  0  0
  3  2  1  6  0  0  0
  3  4  1  0  0  0  0
  3 19  1  0  0  0  0
  3 23  1  0  0  0  0
  4  5  1  6  0  0  0
  4  6  1  0  0  0  0
  4  8  1  0  0  0  0
  5 27  1  0  0  0  0
  6  7  1  0  0  0  0
  7 28  1  0  0  0  0
  7 29  1  0  0  0  0
  8  9  1  0  0  0  0
  8 10  1  0  0  0  0
  8 30  1  1  0  0  0
  9 31  1  0  0  0  0
 10 11  1  0  0  0  0
 10 24  1  0  0  0  0
 10 32  1  6  0  0  0
 11 12  1  0  0  0  0
 11 13  1  0  0  0  0
 11 14  1  0  0  0  0
 12 33  1  0  0  0  0
 12 34  1  0  0  0  0
 12 35  1  0  0  0  0
 13 36  1  0  0  0  0
 13 37  1  0  0  0  0
 13 38  1  0  0  0  0
 14 15  1  0  0  0  0
 14 39  1  0  0  0  0
 14 40  1  0  0  0  0
 15 25  1  0  0  0  0
 15 41  1  0  0  0  0
 15 42  1  0  0  0  0
 16 17  1  0  0  0  0
 16 18  1  0  0  0  0
 16 43  1  6  0  0  0
 17 44  1  0  0  0  0
 17 45  1  0  0  0  0
 17 46  1  0  0  0  0
 18 19  1  0  0  0  0
 18 21  1  0  0  0  0
 18 47  1  6  0  0  0
 19 20  1  0  0  0  0
 19 48  1  1  0  0  0
 20 49  1  0  0  0  0
 21 22  1  0  0  0  0
 21 50  1  0  0  0  0
 21 51  1  0  0  0  0
 22 23  1  0  0  0  0
 22 52  1  0  0  0  0
 22 53  1  0  0  0  0
 23 24  1  0  0  0  0
 23 54  1  6  0  0  0
 24  7  1  1  0  0  0
 24 25  1  0  0  0  0
 25 26  1  0  0  0  0
 25 55  1  6  0  0  0
 26 56  1  0  0  0  0
M  END
$$$$
