7VLP_ligand1
 OpenBabel04052409413D

 72 74  0  0  1  0  0  0  0  0999 V2000
    5.5497    1.1377   18.1941 C   0  0  0  0  0  0  0  0  0  0  0  0
    7.2248   -3.3038   19.9806 C   0  0  0  0  0  0  0  0  0  0  0  0
    8.8465   -1.2352   21.9107 C   0  0  0  0  0  0  0  0  0  0  0  0
    9.6396    1.7482   22.3773 C   0  0  0  0  0  0  0  0  0  0  0  0
   11.4711    4.4988   23.0475 C   0  0  0  0  0  0  0  0  0  0  0  0
    5.1638    0.6714   20.4987 C   0  0  0  0  0  0  0  0  0  0  0  0
    4.2666    1.8121   20.0043 C   0  0  0  0  0  0  0  0  0  0  0  0
   10.8548    0.4846   24.1557 C   0  0  0  0  0  0  0  0  0  0  0  0
    6.1986    0.4396   19.3815 C   0  0  1  0  0  0  0  0  0  0  0  0
   10.2561   -0.6508   22.0840 C   0  0  2  0  0  0  0  0  0  0  0  0
   11.4547   -0.9113   24.1943 C   0  0  1  0  0  0  0  0  0  0  0  0
   11.1234   -1.6064   22.9207 C   0  0  2  0  0  0  0  0  0  0  0  0
   12.5764   -1.3361   23.2678 C   0  0  0  0  0  0  0  0  0  0  0  0
   13.4814   -2.4621   23.7327 C   0  0  0  0  0  0  0  0  0  0  0  0
   13.3708   -0.3326   22.4441 C   0  0  0  0  0  0  0  0  0  0  0  0
    8.0003    4.5320   24.6161 C   0  0  0  0  0  0  0  0  0  0  0  0
    7.2622    2.1900   24.2293 C   0  0  0  0  0  0  0  0  0  0  0  0
    7.2217    3.8276   22.3390 C   0  0  0  0  0  0  0  0  0  0  0  0
    6.5008   -1.0407   19.0920 C   0  0  0  0  0  0  0  0  0  0  0  0
    7.0689   -1.8166   20.2945 C   0  0  2  0  0  0  0  0  0  0  0  0
    9.5088    2.9811   23.3039 C   0  0  2  0  0  0  0  0  0  0  0  0
   12.1381    5.5804   22.1929 C   0  0  0  0  0  0  0  0  0  0  0  0
    8.0166    3.3797   23.5892 C   0  0  0  0  0  0  0  0  0  0  0  0
    5.9219   -3.9623   19.8223 N   0  3  0  0  0  0  0  0  0  0  0  0
    4.4985    1.8541   18.5779 N   0  0  0  0  0  0  0  0  0  0  0  0
   10.1815    0.6031   22.8590 N   0  0  0  0  0  0  0  0  0  0  0  0
    8.3747   -1.2868   20.6588 N   0  0  0  0  0  0  0  0  0  0  0  0
   10.2473    4.0829   22.6757 N   0  0  0  0  0  0  0  0  0  0  0  0
    5.9678    1.0479   17.0438 O   0  0  0  0  0  0  0  0  0  0  0  0
    8.2028   -1.6200   22.8889 O   0  0  0  0  0  0  0  0  0  0  0  0
    9.2482    1.8339   21.2118 O   0  0  0  0  0  0  0  0  0  0  0  0
   12.0619    4.0446   24.0254 O   0  0  0  0  0  0  0  0  0  0  0  0
   11.4653    6.7205   22.3223 F   0  0  0  0  0  0  0  0  0  0  0  0
   13.3961    5.7614   22.5934 F   0  0  0  0  0  0  0  0  0  0  0  0
   12.1415    5.2026   20.9163 F   0  0  0  0  0  0  0  0  0  0  0  0
    7.7715   -3.8171   20.7719 H   0  0  0  0  0  0  0  0  0  0  0  0
    7.7953   -3.4085   19.0599 H   0  0  0  0  0  0  0  0  0  0  0  0
    4.5554   -0.2216   20.6470 H   0  0  0  0  0  0  0  0  0  0  0  0
    5.6360    0.9093   21.4515 H   0  0  0  0  0  0  0  0  0  0  0  0
    4.5652    2.7662   20.4397 H   0  0  0  0  0  0  0  0  0  0  0  0
    3.2135    1.6375   20.2328 H   0  0  0  0  0  0  0  0  0  0  0  0
   11.6333    1.2388   24.2717 H   0  0  0  0  0  0  0  0  0  0  0  0
   10.1285    0.5989   24.9609 H   0  0  0  0  0  0  0  0  0  0  0  0
    7.1174    0.9813   19.6099 H   0  0  0  0  0  0  0  0  0  0  0  0
   10.7215   -0.4766   21.1159 H   0  0  0  0  0  0  0  0  0  0  0  0
   11.3329   -1.4585   25.1254 H   0  0  0  0  0  0  0  0  0  0  0  0
   10.7976   -2.6435   22.9793 H   0  0  0  0  0  0  0  0  0  0  0  0
   14.0433   -2.8742   22.8958 H   0  0  0  0  0  0  0  0  0  0  0  0
   14.1904   -2.0919   24.4739 H   0  0  0  0  0  0  0  0  0  0  0  0
   12.8990   -3.2642   24.1857 H   0  0  0  0  0  0  0  0  0  0  0  0
   13.7596   -0.8088   21.5439 H   0  0  0  0  0  0  0  0  0  0  0  0
   12.7684    0.5197   22.1378 H   0  0  0  0  0  0  0  0  0  0  0  0
   14.2041    0.0523   23.0225 H   0  0  0  0  0  0  0  0  0  0  0  0
    8.4879    5.4277   24.2317 H   0  0  0  0  0  0  0  0  0  0  0  0
    6.9823    4.8116   24.8890 H   0  0  0  0  0  0  0  0  0  0  0  0
    8.5164    4.2525   25.5357 H   0  0  0  0  0  0  0  0  0  0  0  0
    7.1530    1.3520   23.5410 H   0  0  0  0  0  0  0  0  0  0  0  0
    7.7785    1.8214   25.1162 H   0  0  0  0  0  0  0  0  0  0  0  0
    6.2550    2.4778   24.5349 H   0  0  0  0  0  0  0  0  0  0  0  0
    7.0876    3.0245   21.6170 H   0  0  0  0  0  0  0  0  0  0  0  0
    6.2216    4.1622   22.6128 H   0  0  0  0  0  0  0  0  0  0  0  0
    7.7001    4.6607   21.8294 H   0  0  0  0  0  0  0  0  0  0  0  0
    7.1980   -1.1171   18.2548 H   0  0  0  0  0  0  0  0  0  0  0  0
    5.5826   -1.5210   18.7598 H   0  0  0  0  0  0  0  0  0  0  0  0
    6.3833   -1.7071   21.1352 H   0  0  0  0  0  0  0  0  0  0  0  0
    9.9465    2.7822   24.2801 H   0  0  0  0  0  0  0  0  0  0  0  0
    6.0571   -4.9476   19.6529 H   0  0  0  0  0  0  0  0  0  0  0  0
    5.3995   -3.8380   20.6823 H   0  0  0  0  0  0  0  0  0  0  0  0
    5.4228   -3.5400   19.0517 H   0  0  0  0  0  0  0  0  0  0  0  0
    3.9668    2.4493   17.9545 H   0  0  0  0  0  0  0  0  0  0  0  0
    8.9745   -0.9675   19.9097 H   0  0  0  0  0  0  0  0  0  0  0  0
    9.8374    4.4977   21.8497 H   0  0  0  0  0  0  0  0  0  0  0  0
  1  9  1  0  0  0  0
  1 25  1  0  0  0  0
  1 29  2  0  0  0  0
  2 20  1  0  0  0  0
  2 24  1  0  0  0  0
  2 36  1  0  0  0  0
  2 37  1  0  0  0  0
  3 10  1  0  0  0  0
  3 27  1  0  0  0  0
  3 30  2  0  0  0  0
  4 21  1  0  0  0  0
  4 26  1  0  0  0  0
  4 31  2  0  0  0  0
  5 22  1  0  0  0  0
  5 28  1  0  0  0  0
  5 32  2  0  0  0  0
  6  7  1  0  0  0  0
  6  9  1  0  0  0  0
  6 38  1  0  0  0  0
  6 39  1  0  0  0  0
  7 25  1  0  0  0  0
  7 40  1  0  0  0  0
  7 41  1  0  0  0  0
  8 11  1  0  0  0  0
  8 26  1  0  0  0  0
  8 42  1  0  0  0  0
  8 43  1  0  0  0  0
  9 19  1  0  0  0  0
  9 44  1  1  0  0  0
 10 12  1  0  0  0  0
 10 26  1  0  0  0  0
 10 45  1  6  0  0  0
 11 12  1  0  0  0  0
 11 13  1  0  0  0  0
 11 46  1  1  0  0  0
 12 13  1  0  0  0  0
 12 47  1  1  0  0  0
 13 14  1  0  0  0  0
 13 15  1  0  0  0  0
 14 48  1  0  0  0  0
 14 49  1  0  0  0  0
 14 50  1  0  0  0  0
 15 51  1  0  0  0  0
 15 52  1  0  0  0  0
 15 53  1  0  0  0  0
 16 23  1  0  0  0  0
 16 54  1  0  0  0  0
 16 55  1  0  0  0  0
 16 56  1  0  0  0  0
 17 23  1  0  0  0  0
 17 57  1  0  0  0  0
 17 58  1  0  0  0  0
 17 59  1  0  0  0  0
 18 23  1  0  0  0  0
 18 60  1  0  0  0  0
 18 61  1  0  0  0  0
 18 62  1  0  0  0  0
 19 20  1  0  0  0  0
 19 63  1  0  0  0  0
 19 64  1  0  0  0  0
 20 27  1  0  0  0  0
 20 65  1  1  0  0  0
 21 23  1  0  0  0  0
 21 28  1  0  0  0  0
 21 66  1  1  0  0  0
 22 33  1  0  0  0  0
 22 34  1  0  0  0  0
 22 35  1  0  0  0  0
 24 67  1  0  0  0  0
 24 68  1  0  0  0  0
 24 69  1  0  0  0  0
 25 70  1  0  0  0  0
 27 71  1  0  0  0  0
 28 72  1  0  0  0  0
M  CHG  1  24   1
M  END
$$$$
