7X6K_ligand1
 OpenBabel04052409413D

 18 19  0  0  0  0  0  0  0  0999 V2000
   10.7274   -2.8935   21.5804 N   0  0  0  0  0  0  0  0  0  0  0  0
   11.6042    0.0596   23.7445 C   0  0  0  0  0  0  0  0  0  0  0  0
   10.7566   -0.9028   23.1668 C   0  0  0  0  0  0  0  0  0  0  0  0
   11.2968   -1.8532   22.2836 C   0  0  0  0  0  0  0  0  0  0  0  0
   11.6872   -3.5555   20.8371 C   0  0  0  0  0  0  0  0  0  0  0  0
   12.9056   -2.9596   21.0298 C   0  0  0  0  0  0  0  0  0  0  0  0
   12.6847   -1.8813   21.9528 C   0  0  0  0  0  0  0  0  0  0  0  0
   13.5094   -0.9048   22.5542 C   0  0  0  0  0  0  0  0  0  0  0  0
   12.9769    0.0575   23.4348 C   0  0  0  0  0  0  0  0  0  0  0  0
   11.2990   -4.6995   20.0382 C   0  0  0  0  0  0  0  0  0  0  0  0
   12.0544   -5.2426   19.2416 O   0  0  0  0  0  0  0  0  0  0  0  0
    9.7536   -3.1614   21.5944 H   0  0  0  0  0  0  0  0  0  0  0  0
   11.2026    0.7987   24.4215 H   0  0  0  0  0  0  0  0  0  0  0  0
    9.7013   -0.9105   23.3967 H   0  0  0  0  0  0  0  0  0  0  0  0
   13.8523   -3.2419   20.5931 H   0  0  0  0  0  0  0  0  0  0  0  0
   14.5605   -0.8841   22.3244 H   0  0  0  0  0  0  0  0  0  0  0  0
   13.6215    0.8053   23.8696 H   0  0  0  0  0  0  0  0  0  0  0  0
   10.2938   -5.0624   20.2320 H   0  0  0  0  0  0  0  0  0  0  0  0
  1  4  1  0  0  0  0
  1  5  1  0  0  0  0
  1 12  1  0  0  0  0
  2  3  2  0  0  0  0
  2  9  1  0  0  0  0
  2 13  1  0  0  0  0
  3  4  1  0  0  0  0
  3 14  1  0  0  0  0
  4  7  2  0  0  0  0
  5  6  2  0  0  0  0
  5 10  1  0  0  0  0
  6  7  1  0  0  0  0
  6 15  1  0  0  0  0
  7  8  1  0  0  0  0
  8  9  2  0  0  0  0
  8 16  1  0  0  0  0
  9 17  1  0  0  0  0
 10 11  2  0  0  0  0
 10 18  1  0  0  0  0
M  END
$$$$
