8ACD_ligand
 OpenBabel04052409413D

 52 55  0  0  1  0  0  0  0  0999 V2000
    6.0545   -1.3461   21.7520 N   0  0  0  0  0  0  0  0  0  0  0  0
    4.0193    0.3466   20.2224 N   0  0  0  0  0  0  0  0  0  0  0  0
   10.0058   -1.7083   23.2077 C   0  0  0  0  0  0  0  0  0  0  0  0
    7.8351   -2.6368   22.8426 C   0  0  0  0  0  0  0  0  0  0  0  0
    6.3333   -2.3100   22.8209 C   0  0  0  0  0  0  0  0  0  0  0  0
    6.7846   -0.0897   21.9807 C   0  0  0  0  0  0  0  0  0  0  0  0
    8.3098   -0.3561   21.9652 C   0  0  2  0  0  0  0  0  0  0  0  0
   10.2469    2.4541   23.7458 C   0  0  0  0  0  0  0  0  0  0  0  0
   13.5097    1.0073   24.9849 C   0  0  0  0  0  0  0  0  0  0  0  0
    5.3100   -1.6632   20.6636 C   0  0  0  0  0  0  0  0  0  0  0  0
    3.6004    1.4031   19.4156 C   0  0  0  0  0  0  0  0  0  0  0  0
   11.0337   -1.4735   22.2632 C   0  0  0  0  0  0  0  0  0  0  0  0
    8.6494   -1.4209   22.9350 N   0  0  0  0  0  0  0  0  0  0  0  0
   12.3774   -1.7580   22.5663 C   0  0  0  0  0  0  0  0  0  0  0  0
    9.2773    1.6869   21.1674 O   0  0  0  0  0  0  0  0  0  0  0  0
   12.7118   -2.2691   23.8363 C   0  0  0  0  0  0  0  0  0  0  0  0
   11.6345    1.9543   23.9732 C   0  0  0  0  0  0  0  0  0  0  0  0
   12.1478    1.3994   25.1173 C   0  0  0  0  0  0  0  0  0  0  0  0
   14.0148    1.2494   23.7365 C   0  0  0  0  0  0  0  0  0  0  0  0
    4.9771   -0.5512   19.7926 C   0  0  0  0  0  0  0  0  0  0  0  0
    5.5582   -0.4538   18.5704 C   0  0  0  0  0  0  0  0  0  0  0  0
    5.1934    0.6446   17.6797 C   0  0  0  0  0  0  0  0  0  0  0  0
   11.6998   -2.5156   24.7828 C   0  0  0  0  0  0  0  0  0  0  0  0
   10.3564   -2.2400   24.4677 C   0  0  0  0  0  0  0  0  0  0  0  0
    9.0179    0.9990   22.1524 C   0  0  0  0  0  0  0  0  0  0  0  0
    9.3642    1.3513   23.3982 N   0  0  0  0  0  0  0  0  0  0  0  0
    4.2142    1.5100   18.1706 N   0  0  0  0  0  0  0  0  0  0  0  0
    2.7370    2.1945   19.7821 O   0  0  0  0  0  0  0  0  0  0  0  0
    5.6884    0.8525   16.5797 O   0  0  0  0  0  0  0  0  0  0  0  0
    4.8891   -2.8003   20.4572 O   0  0  0  0  0  0  0  0  0  0  0  0
   12.8197    1.9639   22.6937 S   0  0  0  0  0  0  0  0  0  0  0  0
   13.5922   -1.4749   21.3695 Cl  0  0  0  0  0  0  0  0  0  0  0  0
   14.3510   -2.5947   24.2522 Cl  0  0  0  0  0  0  0  0  0  0  0  0
    3.6052    0.2642   21.1451 H   0  0  0  0  0  0  0  0  0  0  0  0
    8.1104   -3.1788   21.9365 H   0  0  0  0  0  0  0  0  0  0  0  0
    8.0336   -3.3079   23.6780 H   0  0  0  0  0  0  0  0  0  0  0  0
    5.7594   -3.2328   22.7221 H   0  0  0  0  0  0  0  0  0  0  0  0
    6.0309   -1.8765   23.7750 H   0  0  0  0  0  0  0  0  0  0  0  0
    6.4805    0.3138   22.9491 H   0  0  0  0  0  0  0  0  0  0  0  0
    6.5471    0.6917   21.2589 H   0  0  0  0  0  0  0  0  0  0  0  0
    8.5696   -0.7253   20.9706 H   0  0  0  0  0  0  0  0  0  0  0  0
   10.2416    3.2285   22.9770 H   0  0  0  0  0  0  0  0  0  0  0  0
    9.8694    2.9254   24.6524 H   0  0  0  0  0  0  0  0  0  0  0  0
   14.0664    0.5602   25.7957 H   0  0  0  0  0  0  0  0  0  0  0  0
   10.8044   -1.0588   21.2970 H   0  0  0  0  0  0  0  0  0  0  0  0
   11.5943    1.2606   26.0353 H   0  0  0  0  0  0  0  0  0  0  0  0
   15.0067    1.0453   23.3609 H   0  0  0  0  0  0  0  0  0  0  0  0
    6.2976   -1.1723   18.2436 H   0  0  0  0  0  0  0  0  0  0  0  0
   11.9517   -2.9139   25.7537 H   0  0  0  0  0  0  0  0  0  0  0  0
    9.5943   -2.4232   25.2114 H   0  0  0  0  0  0  0  0  0  0  0  0
    9.0921    0.7352   24.1537 H   0  0  0  0  0  0  0  0  0  0  0  0
    3.9550    2.3030   17.5928 H   0  0  0  0  0  0  0  0  0  0  0  0
  1  5  1  0  0  0  0
  1  6  1  0  0  0  0
  1 10  1  0  0  0  0
  2 11  1  0  0  0  0
  2 20  1  0  0  0  0
  2 34  1  0  0  0  0
  3 12  2  0  0  0  0
  3 13  1  0  0  0  0
  3 24  1  0  0  0  0
  4  5  1  0  0  0  0
  4 13  1  0  0  0  0
  4 35  1  0  0  0  0
  4 36  1  0  0  0  0
  5 37  1  0  0  0  0
  5 38  1  0  0  0  0
  6  7  1  0  0  0  0
  6 39  1  0  0  0  0
  6 40  1  0  0  0  0
  7 13  1  0  0  0  0
  7 25  1  0  0  0  0
  7 41  1  6  0  0  0
  8 17  1  0  0  0  0
  8 26  1  0  0  0  0
  8 42  1  0  0  0  0
  8 43  1  0  0  0  0
  9 18  1  0  0  0  0
  9 19  2  0  0  0  0
  9 44  1  0  0  0  0
 10 20  1  0  0  0  0
 10 30  2  0  0  0  0
 11 27  1  0  0  0  0
 11 28  2  0  0  0  0
 12 14  1  0  0  0  0
 12 45  1  0  0  0  0
 14 16  2  0  0  0  0
 14 32  1  0  0  0  0
 15 25  2  0  0  0  0
 16 23  1  0  0  0  0
 16 33  1  0  0  0  0
 17 18  2  0  0  0  0
 17 31  1  0  0  0  0
 18 46  1  0  0  0  0
 19 31  1  0  0  0  0
 19 47  1  0  0  0  0
 20 21  2  0  0  0  0
 21 22  1  0  0  0  0
 21 48  1  0  0  0  0
 22 27  1  0  0  0  0
 22 29  2  0  0  0  0
 23 24  2  0  0  0  0
 23 49  1  0  0  0  0
 24 50  1  0  0  0  0
 25 26  1  0  0  0  0
 26 51  1  0  0  0  0
 27 52  1  0  0  0  0
M  END
$$$$
