Mpro-x11609_ligand
 OpenBabel04052409413D

 38 40  0  0  0  0  0  0  0  0999 V2000
    8.8425    0.5384   20.8356 O   0  0  0  0  0  0  0  0  0  0  0  0
    8.2772   -0.5117   21.1504 C   0  0  0  0  0  0  0  0  0  0  0  0
    8.8580   -1.4459   22.2118 C   0  0  0  0  0  0  0  0  0  0  0  0
   10.2551   -1.0122   22.6032 C   0  0  0  0  0  0  0  0  0  0  0  0
   11.3373   -1.5194   21.8690 C   0  0  0  0  0  0  0  0  0  0  0  0
   12.6414   -1.1002   22.1469 C   0  0  0  0  0  0  0  0  0  0  0  0
   13.9213   -1.7258   21.1892 Cl  0  0  0  0  0  0  0  0  0  0  0  0
   12.8776   -0.1820   23.1852 C   0  0  0  0  0  0  0  0  0  0  0  0
   11.7969    0.3152   23.9418 C   0  0  0  0  0  0  0  0  0  0  0  0
   10.4681   -0.0922   23.6537 C   0  0  0  0  0  0  0  0  0  0  0  0
    9.3543    0.3560   24.3318 O   0  0  0  0  0  0  0  0  0  0  0  0
    9.5482    1.1777   25.4671 C   0  0  0  0  0  0  0  0  0  0  0  0
    7.1164   -0.9029   20.6138 N   0  0  0  0  0  0  0  0  0  0  0  0
    6.4066   -0.1329   19.6722 C   0  0  0  0  0  0  0  0  0  0  0  0
    5.2768    0.6261   20.0499 C   0  0  0  0  0  0  0  0  0  0  0  0
    4.7868    0.6367   21.3726 C   0  0  0  0  0  0  0  0  0  0  0  0
    3.6704    1.4296   21.7006 C   0  0  0  0  0  0  0  0  0  0  0  0
    3.0471    2.2134   20.7124 C   0  0  0  0  0  0  0  0  0  0  0  0
    3.5325    2.2079   19.3912 C   0  0  0  0  0  0  0  0  0  0  0  0
    4.6411    1.4069   19.0579 C   0  0  0  0  0  0  0  0  0  0  0  0
    5.1398    1.3662   17.7419 C   0  0  0  0  0  0  0  0  0  0  0  0
    6.2061    0.6251   17.3781 N   0  0  0  0  0  0  0  0  0  0  0  0
    6.8287   -0.0983   18.3313 C   0  0  0  0  0  0  0  0  0  0  0  0
    8.8906   -2.4635   21.8210 H   0  0  0  0  0  0  0  0  0  0  0  0
    8.2043   -1.4626   23.0832 H   0  0  0  0  0  0  0  0  0  0  0  0
   11.1676   -2.2349   21.0832 H   0  0  0  0  0  0  0  0  0  0  0  0
   13.8839    0.1442   23.3953 H   0  0  0  0  0  0  0  0  0  0  0  0
   12.0125    1.0219   24.7263 H   0  0  0  0  0  0  0  0  0  0  0  0
    8.5822    1.4391   25.8984 H   0  0  0  0  0  0  0  0  0  0  0  0
   10.1191    0.6488   26.2294 H   0  0  0  0  0  0  0  0  0  0  0  0
   10.0539    2.1061   25.2026 H   0  0  0  0  0  0  0  0  0  0  0  0
    6.6715   -1.7333   20.9815 H   0  0  0  0  0  0  0  0  0  0  0  0
    5.2562    0.0509   22.1488 H   0  0  0  0  0  0  0  0  0  0  0  0
    3.2970    1.4422   22.7133 H   0  0  0  0  0  0  0  0  0  0  0  0
    2.1974    2.8283   20.9680 H   0  0  0  0  0  0  0  0  0  0  0  0
    3.0591    2.8175   18.6364 H   0  0  0  0  0  0  0  0  0  0  0  0
    4.6928    1.9594   16.9602 H   0  0  0  0  0  0  0  0  0  0  0  0
    7.6950   -0.6642   18.0196 H   0  0  0  0  0  0  0  0  0  0  0  0
  1  2  2  0  0  0  0
  2  3  1  0  0  0  0
  2 13  1  0  0  0  0
  3  4  1  0  0  0  0
  3 24  1  0  0  0  0
  3 25  1  0  0  0  0
  4  5  2  0  0  0  0
  4 10  1  0  0  0  0
  5  6  1  0  0  0  0
  5 26  1  0  0  0  0
  6  7  1  0  0  0  0
  6  8  2  0  0  0  0
  8  9  1  0  0  0  0
  8 27  1  0  0  0  0
  9 10  2  0  0  0  0
  9 28  1  0  0  0  0
 10 11  1  0  0  0  0
 11 12  1  0  0  0  0
 12 29  1  0  0  0  0
 12 30  1  0  0  0  0
 12 31  1  0  0  0  0
 13 14  1  0  0  0  0
 13 32  1  0  0  0  0
 14 15  2  0  0  0  0
 14 23  1  0  0  0  0
 15 16  1  0  0  0  0
 15 20  1  0  0  0  0
 16 17  2  0  0  0  0
 16 33  1  0  0  0  0
 17 18  1  0  0  0  0
 17 34  1  0  0  0  0
 18 19  2  0  0  0  0
 18 35  1  0  0  0  0
 19 20  1  0  0  0  0
 19 36  1  0  0  0  0
 20 21  2  0  0  0  0
 21 22  1  0  0  0  0
 21 37  1  0  0  0  0
 22 23  2  0  0  0  0
 23 38  1  0  0  0  0
M  END
$$$$
