Mpro-x10789_ligand
 OpenBabel04052409413D

 40 42  0  0  1  0  0  0  0  0999 V2000
    6.0946    0.6555   17.5365 N   0  0  0  0  0  0  0  0  0  0  0  0
   12.1735    4.6167   21.8349 N   0  0  0  0  0  0  0  0  0  0  0  0
    5.0633    0.9792   20.1504 C   0  0  0  0  0  0  0  0  0  0  0  0
   12.9886    0.5152   22.5807 C   0  0  0  0  0  0  0  0  0  0  0  0
   12.3849    2.7549   23.3276 O   0  0  0  0  0  0  0  0  0  0  0  0
   10.2597   -0.1836   22.7036 C   0  0  0  0  0  0  0  0  0  0  0  0
    4.4443    1.5978   19.0462 C   0  0  0  0  0  0  0  0  0  0  0  0
   10.6860    1.0912   23.1311 C   0  0  0  0  0  0  0  0  0  0  0  0
    8.1221    0.1769   21.4313 C   0  0  0  0  0  0  0  0  0  0  0  0
    6.2381    0.2274   19.9225 C   0  0  0  0  0  0  0  0  0  0  0  0
    6.7053    0.0902   18.5980 C   0  0  0  0  0  0  0  0  0  0  0  0
   12.9808    3.4653   22.2490 C   0  0  2  0  0  0  0  0  0  0  0  0
   12.5701   -0.7743   22.1951 C   0  0  0  0  0  0  0  0  0  0  0  0
   11.2082   -1.1228   22.2511 C   0  0  0  0  0  0  0  0  0  0  0  0
   12.0385    1.4626   23.0275 C   0  0  0  0  0  0  0  0  0  0  0  0
   14.0509    4.4470   22.7087 C   0  0  0  0  0  0  0  0  0  0  0  0
    4.4969    1.1651   21.5445 C   0  0  0  0  0  0  0  0  0  0  0  0
    6.9625   -0.3394   20.9957 N   0  0  0  0  0  0  0  0  0  0  0  0
    8.6421    1.1645   20.9068 O   0  0  0  0  0  0  0  0  0  0  0  0
   13.1685    6.7434   22.1049 O   0  0  0  0  0  0  0  0  0  0  0  0
    8.7750   -0.5045   22.6428 C   0  0  0  0  0  0  0  0  0  0  0  0
    4.9973    1.4054   17.7663 C   0  0  0  0  0  0  0  0  0  0  0  0
   13.1251    5.5383   22.1924 C   0  0  0  0  0  0  0  0  0  0  0  0
   13.7090   -1.9115   21.5814 Cl  0  0  0  0  0  0  0  0  0  0  0  0
   11.2616    4.7064   21.4051 H   0  0  0  0  0  0  0  0  0  0  0  0
   14.0309    0.7874   22.5009 H   0  0  0  0  0  0  0  0  0  0  0  0
    3.5672    2.2164   19.1686 H   0  0  0  0  0  0  0  0  0  0  0  0
    9.9597    1.8213   23.4574 H   0  0  0  0  0  0  0  0  0  0  0  0
    7.6037   -0.4703   18.3839 H   0  0  0  0  0  0  0  0  0  0  0  0
   13.3143    2.8539   21.4111 H   0  0  0  0  0  0  0  0  0  0  0  0
   10.8916   -2.0971   21.9096 H   0  0  0  0  0  0  0  0  0  0  0  0
   14.9877    4.3366   22.1693 H   0  0  0  0  0  0  0  0  0  0  0  0
   14.1966    4.4598   23.7855 H   0  0  0  0  0  0  0  0  0  0  0  0
    4.4280    0.2100   22.0649 H   0  0  0  0  0  0  0  0  0  0  0  0
    5.1371    1.8306   22.1241 H   0  0  0  0  0  0  0  0  0  0  0  0
    3.4975    1.5991   21.5088 H   0  0  0  0  0  0  0  0  0  0  0  0
    6.5200   -1.0720   21.5315 H   0  0  0  0  0  0  0  0  0  0  0  0
    8.2894   -0.1584   23.5559 H   0  0  0  0  0  0  0  0  0  0  0  0
    8.6272   -1.5838   22.5868 H   0  0  0  0  0  0  0  0  0  0  0  0
    4.5537    1.8759   16.9034 H   0  0  0  0  0  0  0  0  0  0  0  0
  1 11  2  0  0  0  0
  1 22  1  0  0  0  0
  2 12  1  0  0  0  0
  2 23  1  0  0  0  0
  2 25  1  0  0  0  0
  3  7  1  0  0  0  0
  3 10  2  0  0  0  0
  3 17  1  0  0  0  0
  4 13  2  0  0  0  0
  4 15  1  0  0  0  0
  4 26  1  0  0  0  0
  5 12  1  0  0  0  0
  5 15  1  0  0  0  0
  6  8  1  0  0  0  0
  6 14  2  0  0  0  0
  6 21  1  0  0  0  0
  7 22  2  0  0  0  0
  7 27  1  0  0  0  0
  8 15  2  0  0  0  0
  8 28  1  0  0  0  0
  9 18  1  0  0  0  0
  9 19  2  0  0  0  0
  9 21  1  0  0  0  0
 10 11  1  0  0  0  0
 10 18  1  0  0  0  0
 11 29  1  0  0  0  0
 12 16  1  0  0  0  0
 12 30  1  6  0  0  0
 13 14  1  0  0  0  0
 13 24  1  0  0  0  0
 14 31  1  0  0  0  0
 16 23  1  0  0  0  0
 16 32  1  0  0  0  0
 16 33  1  0  0  0  0
 17 34  1  0  0  0  0
 17 35  1  0  0  0  0
 17 36  1  0  0  0  0
 18 37  1  0  0  0  0
 20 23  2  0  0  0  0
 21 38  1  0  0  0  0
 21 39  1  0  0  0  0
 22 40  1  0  0  0  0
M  END
$$$$
