Mpro-x11831_ligand
 OpenBabel04052409413D

 39 42  0  0  0  0  0  0  0  0999 V2000
    8.7847    0.6333   21.0832 O   0  0  0  0  0  0  0  0  0  0  0  0
    8.2754   -0.4672   21.3133 C   0  0  0  0  0  0  0  0  0  0  0  0
    8.8214   -1.3853   22.4144 C   0  0  0  0  0  0  0  0  0  0  0  0
   10.2653   -1.0432   22.7063 C   0  0  0  0  0  0  0  0  0  0  0  0
   10.6130   -0.0498   23.6363 C   0  0  0  0  0  0  0  0  0  0  0  0
    9.7660    0.6291   24.4657 O   0  0  0  0  0  0  0  0  0  0  0  0
   10.5693    1.4475   25.3308 C   0  0  0  0  0  0  0  0  0  0  0  0
   12.0187    1.4129   24.7912 C   0  0  0  0  0  0  0  0  0  0  0  0
   11.9298    0.3553   23.7607 C   0  0  0  0  0  0  0  0  0  0  0  0
   12.9694   -0.2001   22.9977 C   0  0  0  0  0  0  0  0  0  0  0  0
   11.2981   -1.6703   21.9840 C   0  0  0  0  0  0  0  0  0  0  0  0
   12.6371   -1.2518   22.1193 C   0  0  0  0  0  0  0  0  0  0  0  0
   13.8424   -2.0024   21.1511 Cl  0  0  0  0  0  0  0  0  0  0  0  0
    7.2275   -0.9410   20.6292 N   0  0  0  0  0  0  0  0  0  0  0  0
    6.4682   -0.1646   19.7305 C   0  0  0  0  0  0  0  0  0  0  0  0
    5.3464    0.5774   20.1658 C   0  0  0  0  0  0  0  0  0  0  0  0
    4.9056    0.5614   21.5070 C   0  0  0  0  0  0  0  0  0  0  0  0
    3.7929    1.3299   21.8905 C   0  0  0  0  0  0  0  0  0  0  0  0
    3.1156    2.1214   20.9429 C   0  0  0  0  0  0  0  0  0  0  0  0
    3.5467    2.1445   19.6047 C   0  0  0  0  0  0  0  0  0  0  0  0
    4.6515    1.3630   19.2162 C   0  0  0  0  0  0  0  0  0  0  0  0
    5.0828    1.3381   17.8793 C   0  0  0  0  0  0  0  0  0  0  0  0
    6.1299    0.6023   17.4635 N   0  0  0  0  0  0  0  0  0  0  0  0
    6.8133   -0.1250   18.3674 C   0  0  0  0  0  0  0  0  0  0  0  0
    8.7501   -2.4289   22.1033 H   0  0  0  0  0  0  0  0  0  0  0  0
    8.2191   -1.2762   23.3162 H   0  0  0  0  0  0  0  0  0  0  0  0
   10.5274    1.0240   26.3343 H   0  0  0  0  0  0  0  0  0  0  0  0
   10.1789    2.4640   25.3789 H   0  0  0  0  0  0  0  0  0  0  0  0
   12.7436    1.0934   25.5318 H   0  0  0  0  0  0  0  0  0  0  0  0
   12.3283    2.3598   24.3483 H   0  0  0  0  0  0  0  0  0  0  0  0
   13.9878    0.1447   23.1022 H   0  0  0  0  0  0  0  0  0  0  0  0
   11.0540   -2.4542   21.2902 H   0  0  0  0  0  0  0  0  0  0  0  0
    6.8376   -1.8309   20.9168 H   0  0  0  0  0  0  0  0  0  0  0  0
    5.4100   -0.0364   22.2512 H   0  0  0  0  0  0  0  0  0  0  0  0
    3.4567    1.3091   22.9159 H   0  0  0  0  0  0  0  0  0  0  0  0
    2.2627    2.7115   21.2447 H   0  0  0  0  0  0  0  0  0  0  0  0
    3.0268    2.7558   18.8804 H   0  0  0  0  0  0  0  0  0  0  0  0
    4.5830    1.9226   17.1218 H   0  0  0  0  0  0  0  0  0  0  0  0
    7.6609   -0.6798   17.9916 H   0  0  0  0  0  0  0  0  0  0  0  0
  1  2  2  0  0  0  0
  2  3  1  0  0  0  0
  2 14  1  0  0  0  0
  3  4  1  0  0  0  0
  3 25  1  0  0  0  0
  3 26  1  0  0  0  0
  4  5  2  0  0  0  0
  4 11  1  0  0  0  0
  5  6  1  0  0  0  0
  5  9  1  0  0  0  0
  6  7  1  0  0  0  0
  7  8  1  0  0  0  0
  7 27  1  0  0  0  0
  7 28  1  0  0  0  0
  8  9  1  0  0  0  0
  8 29  1  0  0  0  0
  8 30  1  0  0  0  0
  9 10  2  0  0  0  0
 10 12  1  0  0  0  0
 10 31  1  0  0  0  0
 11 12  2  0  0  0  0
 11 32  1  0  0  0  0
 12 13  1  0  0  0  0
 14 15  1  0  0  0  0
 14 33  1  0  0  0  0
 15 16  2  0  0  0  0
 15 24  1  0  0  0  0
 16 17  1  0  0  0  0
 16 21  1  0  0  0  0
 17 18  2  0  0  0  0
 17 34  1  0  0  0  0
 18 19  1  0  0  0  0
 18 35  1  0  0  0  0
 19 20  2  0  0  0  0
 19 36  1  0  0  0  0
 20 21  1  0  0  0  0
 20 37  1  0  0  0  0
 21 22  2  0  0  0  0
 22 23  1  0  0  0  0
 22 38  1  0  0  0  0
 23 24  2  0  0  0  0
 24 39  1  0  0  0  0
M  END
$$$$
