Mpro-x10422_ligand
 OpenBabel04052409413D

 37 38  0  0  0  0  0  0  0  0999 V2000
   13.8564   -1.8948   21.0369 Cl  0  0  0  0  0  0  0  0  0  0  0  0
   12.8470   -0.9350   22.0486 C   0  0  0  0  0  0  0  0  0  0  0  0
   13.3873    0.1442   22.7679 C   0  0  0  0  0  0  0  0  0  0  0  0
   12.5522    0.9255   23.5847 C   0  0  0  0  0  0  0  0  0  0  0  0
   11.1830    0.6280   23.6854 C   0  0  0  0  0  0  0  0  0  0  0  0
   11.4767   -1.2316   22.1493 C   0  0  0  0  0  0  0  0  0  0  0  0
   10.6200   -0.4512   22.9620 C   0  0  0  0  0  0  0  0  0  0  0  0
    9.1027   -0.7289   22.9853 C   0  0  0  0  0  0  0  0  0  0  0  0
    8.8273   -2.2562   22.9717 C   0  0  0  0  0  0  0  0  0  0  0  0
    8.4161   -0.1394   24.2417 C   0  0  0  0  0  0  0  0  0  0  0  0
    8.4957   -0.0373   21.7389 C   0  0  0  0  0  0  0  0  0  0  0  0
    9.0557    0.9301   21.2154 O   0  0  0  0  0  0  0  0  0  0  0  0
    7.3307   -0.5201   21.2793 N   0  0  0  0  0  0  0  0  0  0  0  0
    6.6046    0.0629   20.2196 C   0  0  0  0  0  0  0  0  0  0  0  0
    5.3746    0.7093   20.4641 C   0  0  0  0  0  0  0  0  0  0  0  0
    4.8082    0.8229   21.8646 C   0  0  0  0  0  0  0  0  0  0  0  0
    7.0948    0.0183   18.8979 C   0  0  0  0  0  0  0  0  0  0  0  0
    6.4452    0.5720   17.8536 N   0  0  0  0  0  0  0  0  0  0  0  0
    5.2809    1.2066   18.0960 C   0  0  0  0  0  0  0  0  0  0  0  0
    4.7041    1.2986   19.3754 C   0  0  0  0  0  0  0  0  0  0  0  0
   14.4352    0.3826   22.6856 H   0  0  0  0  0  0  0  0  0  0  0  0
   12.9520    1.7668   24.1247 H   0  0  0  0  0  0  0  0  0  0  0  0
   10.5774    1.2649   24.3085 H   0  0  0  0  0  0  0  0  0  0  0  0
   11.0936   -2.0583   21.5733 H   0  0  0  0  0  0  0  0  0  0  0  0
    7.7756   -2.4814   23.1549 H   0  0  0  0  0  0  0  0  0  0  0  0
    9.0800   -2.7187   22.0176 H   0  0  0  0  0  0  0  0  0  0  0  0
    9.4003   -2.7645   23.7483 H   0  0  0  0  0  0  0  0  0  0  0  0
    7.3666   -0.4325   24.2959 H   0  0  0  0  0  0  0  0  0  0  0  0
    8.8952   -0.4911   25.1560 H   0  0  0  0  0  0  0  0  0  0  0  0
    8.4267    0.9507   24.2546 H   0  0  0  0  0  0  0  0  0  0  0  0
    6.8638   -1.2254   21.8302 H   0  0  0  0  0  0  0  0  0  0  0  0
    3.7887    1.2057   21.8481 H   0  0  0  0  0  0  0  0  0  0  0  0
    4.7978   -0.1465   22.3596 H   0  0  0  0  0  0  0  0  0  0  0  0
    5.4201    1.5026   22.4580 H   0  0  0  0  0  0  0  0  0  0  0  0
    8.0329   -0.4680   18.6706 H   0  0  0  0  0  0  0  0  0  0  0  0
    4.8043    1.6681   17.2463 H   0  0  0  0  0  0  0  0  0  0  0  0
    3.7789    1.8369   19.5156 H   0  0  0  0  0  0  0  0  0  0  0  0
  1  2  1  0  0  0  0
  2  3  2  0  0  0  0
  2  6  1  0  0  0  0
  3  4  1  0  0  0  0
  3 21  1  0  0  0  0
  4  5  2  0  0  0  0
  4 22  1  0  0  0  0
  5  7  1  0  0  0  0
  5 23  1  0  0  0  0
  6  7  2  0  0  0  0
  6 24  1  0  0  0  0
  7  8  1  0  0  0  0
  8  9  1  0  0  0  0
  8 10  1  0  0  0  0
  8 11  1  0  0  0  0
  9 25  1  0  0  0  0
  9 26  1  0  0  0  0
  9 27  1  0  0  0  0
 10 28  1  0  0  0  0
 10 29  1  0  0  0  0
 10 30  1  0  0  0  0
 11 12  2  0  0  0  0
 11 13  1  0  0  0  0
 13 14  1  0  0  0  0
 13 31  1  0  0  0  0
 14 15  2  0  0  0  0
 14 17  1  0  0  0  0
 15 16  1  0  0  0  0
 15 20  1  0  0  0  0
 16 32  1  0  0  0  0
 16 33  1  0  0  0  0
 16 34  1  0  0  0  0
 17 18  2  0  0  0  0
 17 35  1  0  0  0  0
 18 19  1  0  0  0  0
 19 20  2  0  0  0  0
 19 36  1  0  0  0  0
 20 37  1  0  0  0  0
M  END
$$$$
