Mpro-x11541_ligand
 OpenBabel04052409413D

 43 45  0  0  0  0  0  0  0  0999 V2000
    9.5296    0.9549   21.0831 O   0  0  0  0  0  0  0  0  0  0  0  0
    9.1761   -0.2023   21.3089 C   0  0  0  0  0  0  0  0  0  0  0  0
    8.0273   -0.7276   20.8565 N   0  0  0  0  0  0  0  0  0  0  0  0
    7.1294   -0.0818   19.9811 C   0  0  0  0  0  0  0  0  0  0  0  0
    5.9009    0.4655   20.4206 C   0  0  0  0  0  0  0  0  0  0  0  0
    5.4862    0.4193   21.7687 C   0  0  0  0  0  0  0  0  0  0  0  0
    4.2728    1.0187   22.1545 C   0  0  0  0  0  0  0  0  0  0  0  0
    3.4694    1.6744   21.2008 C   0  0  0  0  0  0  0  0  0  0  0  0
    3.8666    1.7141   19.8523 C   0  0  0  0  0  0  0  0  0  0  0  0
    5.0700    1.0977   19.4630 C   0  0  0  0  0  0  0  0  0  0  0  0
    5.4787    1.1026   18.1185 C   0  0  0  0  0  0  0  0  0  0  0  0
    6.6278    0.5446   17.6954 N   0  0  0  0  0  0  0  0  0  0  0  0
    7.4383   -0.0196   18.6102 C   0  0  0  0  0  0  0  0  0  0  0  0
   10.0435   -1.1188   22.1783 C   0  0  0  0  0  0  0  0  0  0  0  0
    9.2634   -1.9162   23.1442 N   0  0  0  0  0  0  0  0  0  0  0  0
    8.6407   -1.0759   24.1696 C   0  0  0  0  0  0  0  0  0  0  0  0
    7.7087   -1.9360   25.0295 C   0  0  0  0  0  0  0  0  0  0  0  0
   10.0911   -2.9296   23.7917 C   0  0  0  0  0  0  0  0  0  0  0  0
    9.2211   -3.8311   24.6876 C   0  0  0  0  0  0  0  0  0  0  0  0
    8.4495   -3.0383   25.6528 N   0  0  0  0  0  0  0  0  0  0  0  0
    8.2900   -3.3474   26.9580 C   0  0  0  0  0  0  0  0  0  0  0  0
    7.7024   -2.6072   27.7444 O   0  0  0  0  0  0  0  0  0  0  0  0
    8.7869   -4.6945   27.4736 C   0  0  0  0  0  0  0  0  0  0  0  0
    7.7614   -1.6449   21.1932 H   0  0  0  0  0  0  0  0  0  0  0  0
    6.0923   -0.0667   22.5174 H   0  0  0  0  0  0  0  0  0  0  0  0
    3.9614    0.9811   23.1874 H   0  0  0  0  0  0  0  0  0  0  0  0
    2.5483    2.1473   21.5060 H   0  0  0  0  0  0  0  0  0  0  0  0
    3.2489    2.2181   19.1217 H   0  0  0  0  0  0  0  0  0  0  0  0
    4.8884    1.5872   17.3600 H   0  0  0  0  0  0  0  0  0  0  0  0
    8.3617   -0.4392   18.2366 H   0  0  0  0  0  0  0  0  0  0  0  0
   10.7942   -0.5262   22.7041 H   0  0  0  0  0  0  0  0  0  0  0  0
   10.5838   -1.7863   21.5066 H   0  0  0  0  0  0  0  0  0  0  0  0
    8.0513   -0.2819   23.7181 H   0  0  0  0  0  0  0  0  0  0  0  0
    9.3998   -0.5910   24.7862 H   0  0  0  0  0  0  0  0  0  0  0  0
    6.9083   -2.3538   24.4176 H   0  0  0  0  0  0  0  0  0  0  0  0
    7.2193   -1.2873   25.7570 H   0  0  0  0  0  0  0  0  0  0  0  0
   10.8704   -2.4511   24.3785 H   0  0  0  0  0  0  0  0  0  0  0  0
   10.5885   -3.5415   23.0411 H   0  0  0  0  0  0  0  0  0  0  0  0
    9.8734   -4.5640   25.1609 H   0  0  0  0  0  0  0  0  0  0  0  0
    8.5157   -4.3895   24.0777 H   0  0  0  0  0  0  0  0  0  0  0  0
    8.4692   -4.8479   28.5031 H   0  0  0  0  0  0  0  0  0  0  0  0
    8.3377   -5.4908   26.8849 H   0  0  0  0  0  0  0  0  0  0  0  0
    9.8736   -4.7715   27.4342 H   0  0  0  0  0  0  0  0  0  0  0  0
  1  2  2  0  0  0  0
  2  3  1  0  0  0  0
  2 14  1  0  0  0  0
  3  4  1  0  0  0  0
  3 24  1  0  0  0  0
  4  5  2  0  0  0  0
  4 13  1  0  0  0  0
  5  6  1  0  0  0  0
  5 10  1  0  0  0  0
  6  7  2  0  0  0  0
  6 25  1  0  0  0  0
  7  8  1  0  0  0  0
  7 26  1  0  0  0  0
  8  9  2  0  0  0  0
  8 27  1  0  0  0  0
  9 10  1  0  0  0  0
  9 28  1  0  0  0  0
 10 11  2  0  0  0  0
 11 12  1  0  0  0  0
 11 29  1  0  0  0  0
 12 13  2  0  0  0  0
 13 30  1  0  0  0  0
 14 15  1  0  0  0  0
 14 31  1  0  0  0  0
 14 32  1  0  0  0  0
 15 16  1  0  0  0  0
 15 18  1  0  0  0  0
 16 17  1  0  0  0  0
 16 33  1  0  0  0  0
 16 34  1  0  0  0  0
 17 20  1  0  0  0  0
 17 35  1  0  0  0  0
 17 36  1  0  0  0  0
 18 19  1  0  0  0  0
 18 37  1  0  0  0  0
 18 38  1  0  0  0  0
 19 20  1  0  0  0  0
 19 39  1  0  0  0  0
 19 40  1  0  0  0  0
 20 21  1  0  0  0  0
 21 22  2  0  0  0  0
 21 23  1  0  0  0  0
 23 41  1  0  0  0  0
 23 42  1  0  0  0  0
 23 43  1  0  0  0  0
M  END
$$$$
