Mpro-x11458_ligand
 OpenBabel04052409413D

 36 38  0  0  0  0  0  0  0  0999 V2000
    8.6866    0.6107   21.2490 O   0  0  0  0  0  0  0  0  0  0  0  0
    8.1337   -0.4631   21.5066 C   0  0  0  0  0  0  0  0  0  0  0  0
    7.1053   -0.9350   20.7936 N   0  0  0  0  0  0  0  0  0  0  0  0
    6.4247   -0.1681   19.8260 C   0  0  0  0  0  0  0  0  0  0  0  0
    5.3003    0.6185   20.1654 C   0  0  0  0  0  0  0  0  0  0  0  0
    4.7880    0.6718   21.4803 C   0  0  0  0  0  0  0  0  0  0  0  0
    3.6770    1.4838   21.7700 C   0  0  0  0  0  0  0  0  0  0  0  0
    3.0732    2.2503   20.7547 C   0  0  0  0  0  0  0  0  0  0  0  0
    3.5779    2.2051   19.4427 C   0  0  0  0  0  0  0  0  0  0  0  0
    4.6824    1.3835   19.1479 C   0  0  0  0  0  0  0  0  0  0  0  0
    5.1979    1.3030   17.8437 C   0  0  0  0  0  0  0  0  0  0  0  0
    6.2627    0.5443   17.5235 N   0  0  0  0  0  0  0  0  0  0  0  0
    6.8663   -0.1697   18.4902 C   0  0  0  0  0  0  0  0  0  0  0  0
    8.6007   -1.3417   22.6759 C   0  0  0  0  0  0  0  0  0  0  0  0
   10.0322   -1.0026   23.0255 C   0  0  0  0  0  0  0  0  0  0  0  0
   11.0576   -1.5125   22.2157 C   0  0  0  0  0  0  0  0  0  0  0  0
   12.3739   -1.0584   22.3781 C   0  0  0  0  0  0  0  0  0  0  0  0
   13.3769   -1.5456   21.4648 C   0  0  0  0  0  0  0  0  0  0  0  0
   14.1211   -2.0137   20.6235 C   0  0  0  0  0  0  0  0  0  0  0  0
   12.6828   -0.1188   23.3762 C   0  0  0  0  0  0  0  0  0  0  0  0
   11.6657    0.3450   24.2298 C   0  0  0  0  0  0  0  0  0  0  0  0
   10.3385   -0.0971   24.0622 C   0  0  0  0  0  0  0  0  0  0  0  0
    6.7045   -1.8286   21.0547 H   0  0  0  0  0  0  0  0  0  0  0  0
    5.2373    0.0967   22.2759 H   0  0  0  0  0  0  0  0  0  0  0  0
    3.2877    1.5154   22.7752 H   0  0  0  0  0  0  0  0  0  0  0  0
    2.2228    2.8750   20.9848 H   0  0  0  0  0  0  0  0  0  0  0  0
    3.1172    2.8026   18.6682 H   0  0  0  0  0  0  0  0  0  0  0  0
    4.7688    1.8813   17.0396 H   0  0  0  0  0  0  0  0  0  0  0  0
    7.7281   -0.7467   18.1880 H   0  0  0  0  0  0  0  0  0  0  0  0
    8.5338   -2.3964   22.4046 H   0  0  0  0  0  0  0  0  0  0  0  0
    7.9487   -1.1845   23.5353 H   0  0  0  0  0  0  0  0  0  0  0  0
   10.8152   -2.2100   21.4288 H   0  0  0  0  0  0  0  0  0  0  0  0
   14.7649   -2.4562   19.9020 H   0  0  0  0  0  0  0  0  0  0  0  0
   13.6926    0.2481   23.4853 H   0  0  0  0  0  0  0  0  0  0  0  0
   11.8975    1.0808   24.9784 H   0  0  0  0  0  0  0  0  0  0  0  0
    9.5557    0.3049   24.6870 H   0  0  0  0  0  0  0  0  0  0  0  0
  1  2  2  0  0  0  0
  2  3  1  0  0  0  0
  2 14  1  0  0  0  0
  3  4  1  0  0  0  0
  3 23  1  0  0  0  0
  4  5  2  0  0  0  0
  4 13  1  0  0  0  0
  5  6  1  0  0  0  0
  5 10  1  0  0  0  0
  6  7  2  0  0  0  0
  6 24  1  0  0  0  0
  7  8  1  0  0  0  0
  7 25  1  0  0  0  0
  8  9  2  0  0  0  0
  8 26  1  0  0  0  0
  9 10  1  0  0  0  0
  9 27  1  0  0  0  0
 10 11  2  0  0  0  0
 11 12  1  0  0  0  0
 11 28  1  0  0  0  0
 12 13  2  0  0  0  0
 13 29  1  0  0  0  0
 14 15  1  0  0  0  0
 14 30  1  0  0  0  0
 14 31  1  0  0  0  0
 15 16  2  0  0  0  0
 15 22  1  0  0  0  0
 16 17  1  0  0  0  0
 16 32  1  0  0  0  0
 17 18  1  0  0  0  0
 17 20  2  0  0  0  0
 18 19  3  0  0  0  0
 19 33  1  0  0  0  0
 20 21  1  0  0  0  0
 20 34  1  0  0  0  0
 21 22  2  0  0  0  0
 21 35  1  0  0  0  0
 22 36  1  0  0  0  0
M  END
$$$$
