Mpro-x0770_ligand
 OpenBabel04052409413D

 35 36  0  0  0  0  0  0  0  0999 V2000
    6.4798   -2.6414   21.1666 N   0  0  0  0  0  0  0  0  0  0  0  0
    6.1981   -2.4692   18.6809 C   0  0  0  0  0  0  0  0  0  0  0  0
    5.7526   -4.4049   19.9516 O   0  0  0  0  0  0  0  0  0  0  0  0
    6.1528   -3.2437   19.9991 C   0  0  0  0  0  0  0  0  0  0  0  0
   11.7087   -1.8039   22.8540 C   0  0  0  0  0  0  0  0  0  0  0  0
    8.5734   -1.6605   21.9576 C   0  0  0  0  0  0  0  0  0  0  0  0
    7.2074   -1.3804   21.3158 C   0  0  0  0  0  0  0  0  0  0  0  0
    6.2223   -3.2576   22.4735 C   0  0  0  0  0  0  0  0  0  0  0  0
    7.5510   -3.5333   23.2003 C   0  0  0  0  0  0  0  0  0  0  0  0
    9.6466   -2.5720   24.0558 C   0  0  0  0  0  0  0  0  0  0  0  0
   10.7395   -1.5442   23.8376 C   0  0  0  0  0  0  0  0  0  0  0  0
   10.7877   -0.3367   24.5659 C   0  0  0  0  0  0  0  0  0  0  0  0
   11.8050    0.6025   24.2927 C   0  0  0  0  0  0  0  0  0  0  0  0
   12.7762    0.3349   23.3067 C   0  0  0  0  0  0  0  0  0  0  0  0
   12.7222   -0.8746   22.5879 C   0  0  0  0  0  0  0  0  0  0  0  0
    8.3990   -2.3143   23.2861 N   0  3  0  0  0  0  0  0  0  0  0  0
   13.8889   -1.2572   21.3877 Cl  0  0  0  0  0  0  0  0  0  0  0  0
    6.3492   -3.1437   17.8518 H   0  0  0  0  0  0  0  0  0  0  0  0
    5.2408   -2.0008   18.4880 H   0  0  0  0  0  0  0  0  0  0  0  0
    7.0048   -1.7484   18.6032 H   0  0  0  0  0  0  0  0  0  0  0  0
   11.6670   -2.7199   22.2894 H   0  0  0  0  0  0  0  0  0  0  0  0
    9.0941   -0.7085   22.0561 H   0  0  0  0  0  0  0  0  0  0  0  0
    9.1777   -2.2941   21.3047 H   0  0  0  0  0  0  0  0  0  0  0  0
    6.6310   -0.7201   21.9629 H   0  0  0  0  0  0  0  0  0  0  0  0
    7.3544   -0.8310   20.3952 H   0  0  0  0  0  0  0  0  0  0  0  0
    5.6428   -4.1786   22.4031 H   0  0  0  0  0  0  0  0  0  0  0  0
    5.6120   -2.5756   23.0672 H   0  0  0  0  0  0  0  0  0  0  0  0
    8.0978   -4.3161   22.6709 H   0  0  0  0  0  0  0  0  0  0  0  0
    7.3523   -3.9094   24.2042 H   0  0  0  0  0  0  0  0  0  0  0  0
    9.4084   -2.6382   25.1176 H   0  0  0  0  0  0  0  0  0  0  0  0
   10.0522   -3.5424   23.7699 H   0  0  0  0  0  0  0  0  0  0  0  0
   10.0440   -0.1232   25.3196 H   0  0  0  0  0  0  0  0  0  0  0  0
   11.8445    1.5338   24.8343 H   0  0  0  0  0  0  0  0  0  0  0  0
   13.5597    1.0507   23.1124 H   0  0  0  0  0  0  0  0  0  0  0  0
    7.8783   -1.6452   23.8346 H   0  0  0  0  0  0  0  0  0  0  0  0
  1  4  1  0  0  0  0
  1  7  1  0  0  0  0
  1  8  1  0  0  0  0
  2  4  1  0  0  0  0
  2 18  1  0  0  0  0
  2 19  1  0  0  0  0
  2 20  1  0  0  0  0
  3  4  2  0  0  0  0
  5 11  2  0  0  0  0
  5 15  1  0  0  0  0
  5 21  1  0  0  0  0
  6  7  1  0  0  0  0
  6 16  1  0  0  0  0
  6 22  1  0  0  0  0
  6 23  1  0  0  0  0
  7 24  1  0  0  0  0
  7 25  1  0  0  0  0
  8  9  1  0  0  0  0
  8 26  1  0  0  0  0
  8 27  1  0  0  0  0
  9 16  1  0  0  0  0
  9 28  1  0  0  0  0
  9 29  1  0  0  0  0
 10 11  1  0  0  0  0
 10 16  1  0  0  0  0
 10 30  1  0  0  0  0
 10 31  1  0  0  0  0
 11 12  1  0  0  0  0
 12 13  2  0  0  0  0
 12 32  1  0  0  0  0
 13 14  1  0  0  0  0
 13 33  1  0  0  0  0
 14 15  2  0  0  0  0
 14 34  1  0  0  0  0
 15 17  1  0  0  0  0
 16 35  1  0  0  0  0
M  CHG  1  16   1
M  END
$$$$
