Mpro-x11757_ligand
 OpenBabel04052409413D

 63 67  0  0  0  0  0  0  0  0999 V2000
    9.3396    1.0235   21.2087 O   0  0  0  0  0  0  0  0  0  0  0  0
    9.0024    0.0155   21.8353 C   0  0  0  0  0  0  0  0  0  0  0  0
    8.0016   -0.9633   21.1926 C   0  0  0  0  0  0  0  0  0  0  0  0
    7.2241   -0.3391   20.1395 N   0  0  0  0  0  0  0  0  0  0  0  0
    7.6565   -0.3870   18.8495 N   0  0  0  0  0  0  0  0  0  0  0  0
    6.8324    0.2884   18.1105 N   0  0  0  0  0  0  0  0  0  0  0  0
    6.0508    0.3741   20.2568 C   0  0  0  0  0  0  0  0  0  0  0  0
    5.8352    0.7815   18.9257 C   0  0  0  0  0  0  0  0  0  0  0  0
    4.7191    1.5937   18.6530 C   0  0  0  0  0  0  0  0  0  0  0  0
    3.8341    1.9490   19.6889 C   0  0  0  0  0  0  0  0  0  0  0  0
    5.1870    0.7252   21.3050 C   0  0  0  0  0  0  0  0  0  0  0  0
    4.0506    1.5204   21.0178 C   0  0  0  0  0  0  0  0  0  0  0  0
    3.1276    1.9103   21.9618 O   0  0  0  0  0  0  0  0  0  0  0  0
    3.4480    1.6926   23.3281 C   0  0  0  0  0  0  0  0  0  0  0  0
    9.4883   -0.2653   23.0678 N   0  0  0  0  0  0  0  0  0  0  0  0
   10.5873    0.5156   23.6513 C   0  0  0  0  0  0  0  0  0  0  0  0
   11.8527   -0.3152   23.7289 C   0  0  0  0  0  0  0  0  0  0  0  0
   12.3717   -0.7232   22.5493 N   0  0  0  0  0  0  0  0  0  0  0  0
   13.4019   -1.5914   22.5808 C   0  0  0  0  0  0  0  0  0  0  0  0
   13.9573   -2.0788   23.7773 C   0  0  0  0  0  0  0  0  0  0  0  0
   13.4411   -1.6225   25.0016 C   0  0  0  0  0  0  0  0  0  0  0  0
   12.3610   -0.7233   24.9770 C   0  0  0  0  0  0  0  0  0  0  0  0
    9.0185   -1.3712   23.8256 C   0  0  0  0  0  0  0  0  0  0  0  0
    9.5648   -2.6591   23.6373 C   0  0  0  0  0  0  0  0  0  0  0  0
    9.0968   -3.7425   24.4067 C   0  0  0  0  0  0  0  0  0  0  0  0
    8.0747   -3.5494   25.3600 C   0  0  0  0  0  0  0  0  0  0  0  0
    7.5385   -2.2576   25.5491 C   0  0  0  0  0  0  0  0  0  0  0  0
    8.0118   -1.1749   24.7898 C   0  0  0  0  0  0  0  0  0  0  0  0
    7.5592   -4.7239   26.1791 C   0  0  0  0  0  0  0  0  0  0  0  0
    6.0425   -4.9369   25.9873 C   0  0  0  0  0  0  0  0  0  0  0  0
    5.5295   -6.1030   26.8471 C   0  0  0  0  0  0  0  0  0  0  0  0
    5.8737   -5.8980   28.2696 N   0  3  0  0  0  0  0  0  0  0  0  0
    7.3240   -5.7295   28.4973 C   0  0  0  0  0  0  0  0  0  0  0  0
    7.8839   -4.5589   27.6760 C   0  0  0  0  0  0  0  0  0  0  0  0
    7.2959   -1.3602   21.9230 H   0  0  0  0  0  0  0  0  0  0  0  0
    8.5595   -1.8068   20.7909 H   0  0  0  0  0  0  0  0  0  0  0  0
    4.5519    1.9467   17.6481 H   0  0  0  0  0  0  0  0  0  0  0  0
    2.9771    2.5629   19.4570 H   0  0  0  0  0  0  0  0  0  0  0  0
    5.4100    0.3759   22.3016 H   0  0  0  0  0  0  0  0  0  0  0  0
    2.6577    2.1089   23.9523 H   0  0  0  0  0  0  0  0  0  0  0  0
    3.5327    0.6334   23.5691 H   0  0  0  0  0  0  0  0  0  0  0  0
    4.3778    2.1951   23.5967 H   0  0  0  0  0  0  0  0  0  0  0  0
   10.2957    0.8389   24.6518 H   0  0  0  0  0  0  0  0  0  0  0  0
   10.8116    1.4303   23.1021 H   0  0  0  0  0  0  0  0  0  0  0  0
   13.7868   -1.9131   21.6240 H   0  0  0  0  0  0  0  0  0  0  0  0
   14.7660   -2.7856   23.7525 H   0  0  0  0  0  0  0  0  0  0  0  0
   13.8508   -1.9782   25.9346 H   0  0  0  0  0  0  0  0  0  0  0  0
   11.9006   -0.3938   25.8933 H   0  0  0  0  0  0  0  0  0  0  0  0
   10.3456   -2.8179   22.9073 H   0  0  0  0  0  0  0  0  0  0  0  0
    9.5233   -4.7239   24.2608 H   0  0  0  0  0  0  0  0  0  0  0  0
    6.7663   -2.0847   26.2839 H   0  0  0  0  0  0  0  0  0  0  0  0
    7.5971   -0.1949   24.9550 H   0  0  0  0  0  0  0  0  0  0  0  0
    8.0666   -5.6243   25.8278 H   0  0  0  0  0  0  0  0  0  0  0  0
    5.8229   -5.1292   24.9361 H   0  0  0  0  0  0  0  0  0  0  0  0
    5.4936   -4.0340   26.2566 H   0  0  0  0  0  0  0  0  0  0  0  0
    5.9579   -7.0443   26.5087 H   0  0  0  0  0  0  0  0  0  0  0  0
    4.4476   -6.1966   26.7513 H   0  0  0  0  0  0  0  0  0  0  0  0
    5.5493   -6.6915   28.8037 H   0  0  0  0  0  0  0  0  0  0  0  0
    5.4026   -5.0680   28.6014 H   0  0  0  0  0  0  0  0  0  0  0  0
    7.8503   -6.6474   28.2485 H   0  0  0  0  0  0  0  0  0  0  0  0
    7.4759   -5.5567   29.5594 H   0  0  0  0  0  0  0  0  0  0  0  0
    7.4618   -3.6266   28.0509 H   0  0  0  0  0  0  0  0  0  0  0  0
    8.9625   -4.4878   27.8237 H   0  0  0  0  0  0  0  0  0  0  0  0
  1  2  2  0  0  0  0
  2  3  1  0  0  0  0
  2 15  1  0  0  0  0
  3  4  1  0  0  0  0
  3 35  1  0  0  0  0
  3 36  1  0  0  0  0
  4  5  1  0  0  0  0
  4  7  1  0  0  0  0
  5  6  2  0  0  0  0
  6  8  1  0  0  0  0
  7  8  2  0  0  0  0
  7 11  1  0  0  0  0
  8  9  1  0  0  0  0
  9 10  2  0  0  0  0
  9 37  1  0  0  0  0
 10 12  1  0  0  0  0
 10 38  1  0  0  0  0
 11 12  2  0  0  0  0
 11 39  1  0  0  0  0
 12 13  1  0  0  0  0
 13 14  1  0  0  0  0
 14 40  1  0  0  0  0
 14 41  1  0  0  0  0
 14 42  1  0  0  0  0
 15 16  1  0  0  0  0
 15 23  1  0  0  0  0
 16 17  1  0  0  0  0
 16 43  1  0  0  0  0
 16 44  1  0  0  0  0
 17 18  2  0  0  0  0
 17 22  1  0  0  0  0
 18 19  1  0  0  0  0
 19 20  2  0  0  0  0
 19 45  1  0  0  0  0
 20 21  1  0  0  0  0
 20 46  1  0  0  0  0
 21 22  2  0  0  0  0
 21 47  1  0  0  0  0
 22 48  1  0  0  0  0
 23 24  2  0  0  0  0
 23 28  1  0  0  0  0
 24 25  1  0  0  0  0
 24 49  1  0  0  0  0
 25 26  2  0  0  0  0
 25 50  1  0  0  0  0
 26 27  1  0  0  0  0
 26 29  1  0  0  0  0
 27 28  2  0  0  0  0
 27 51  1  0  0  0  0
 28 52  1  0  0  0  0
 29 30  1  0  0  0  0
 29 34  1  0  0  0  0
 29 53  1  0  0  0  0
 30 31  1  0  0  0  0
 30 54  1  0  0  0  0
 30 55  1  0  0  0  0
 31 32  1  0  0  0  0
 31 56  1  0  0  0  0
 31 57  1  0  0  0  0
 32 33  1  0  0  0  0
 32 58  1  0  0  0  0
 32 59  1  0  0  0  0
 33 34  1  0  0  0  0
 33 60  1  0  0  0  0
 33 61  1  0  0  0  0
 34 62  1  0  0  0  0
 34 63  1  0  0  0  0
M  CHG  1  32   1
M  END
$$$$
