Mpro-x12674_ligand
 OpenBabel04052409413D

 41 44  0  0  1  0  0  0  0  0999 V2000
    8.5459    1.2073   21.1234 O   0  0  0  0  0  0  0  0  0  0  0  0
    8.0154    0.2433   21.6810 C   0  0  0  0  0  0  0  0  0  0  0  0
    8.5019   -0.1421   23.0930 C   0  0  2  0  0  0  0  0  0  0  0  0
    9.9942   -0.4351   23.0994 C   0  0  0  0  0  0  0  0  0  0  0  0
   10.8218    0.1925   24.0562 C   0  0  0  0  0  0  0  0  0  0  0  0
   12.1819   -0.1488   24.1414 C   0  0  0  0  0  0  0  0  0  0  0  0
   10.5514   -1.3706   22.1989 C   0  0  0  0  0  0  0  0  0  0  0  0
   11.9056   -1.7220   22.2964 C   0  0  0  0  0  0  0  0  0  0  0  0
   12.7053   -1.1321   23.2858 C   0  0  0  0  0  0  0  0  0  0  0  0
   14.3165   -1.6667   23.4751 Cl  0  0  0  0  0  0  0  0  0  0  0  0
    7.0349   -0.4842   21.0885 N   0  0  0  0  0  0  0  0  0  0  0  0
    6.4792   -1.7341   21.6247 C   0  0  0  0  0  0  0  0  0  0  0  0
    7.2993   -2.3629   22.7547 C   0  0  0  0  0  0  0  0  0  0  0  0
    7.6992   -1.2804   23.7556 C   0  0  0  0  0  0  0  0  0  0  0  0
    6.3216    0.0948   20.0121 C   0  0  0  0  0  0  0  0  0  0  0  0
    5.2152    0.9505   20.2381 C   0  0  0  0  0  0  0  0  0  0  0  0
    4.7318    1.2442   21.5340 C   0  0  0  0  0  0  0  0  0  0  0  0
    3.6380    2.1123   21.7031 C   0  0  0  0  0  0  0  0  0  0  0  0
    3.0248    2.6992   20.5820 C   0  0  0  0  0  0  0  0  0  0  0  0
    3.4965    2.4136   19.2871 C   0  0  0  0  0  0  0  0  0  0  0  0
    4.5850    1.5368   19.1158 C   0  0  0  0  0  0  0  0  0  0  0  0
    5.0788    1.2329   17.8334 C   0  0  0  0  0  0  0  0  0  0  0  0
    6.1163    0.4013   17.6171 N   0  0  0  0  0  0  0  0  0  0  0  0
    6.7238   -0.1513   18.6861 C   0  0  0  0  0  0  0  0  0  0  0  0
    8.3526    0.7481   23.7057 H   0  0  0  0  0  0  0  0  0  0  0  0
   10.4116    0.9129   24.7496 H   0  0  0  0  0  0  0  0  0  0  0  0
   12.8153    0.3104   24.8845 H   0  0  0  0  0  0  0  0  0  0  0  0
    9.9422   -1.8458   21.4452 H   0  0  0  0  0  0  0  0  0  0  0  0
   12.3221   -2.4601   21.6273 H   0  0  0  0  0  0  0  0  0  0  0  0
    6.3510   -2.4498   20.8145 H   0  0  0  0  0  0  0  0  0  0  0  0
    5.4784   -1.5242   21.9946 H   0  0  0  0  0  0  0  0  0  0  0  0
    8.1800   -2.8618   22.3532 H   0  0  0  0  0  0  0  0  0  0  0  0
    6.7133   -3.1369   23.2513 H   0  0  0  0  0  0  0  0  0  0  0  0
    6.7891   -0.8637   24.1904 H   0  0  0  0  0  0  0  0  0  0  0  0
    8.2566   -1.7122   24.5880 H   0  0  0  0  0  0  0  0  0  0  0  0
    5.1878    0.8140   22.4127 H   0  0  0  0  0  0  0  0  0  0  0  0
    3.2736    2.3335   22.6954 H   0  0  0  0  0  0  0  0  0  0  0  0
    2.1964    3.3770   20.7203 H   0  0  0  0  0  0  0  0  0  0  0  0
    3.0271    2.8764   18.4305 H   0  0  0  0  0  0  0  0  0  0  0  0
    4.6481    1.6850   16.9552 H   0  0  0  0  0  0  0  0  0  0  0  0
    7.5664   -0.7934   18.4759 H   0  0  0  0  0  0  0  0  0  0  0  0
  1  2  2  0  0  0  0
  2  3  1  0  0  0  0
  2 11  1  0  0  0  0
  3  4  1  0  0  0  0
  3 14  1  0  0  0  0
  3 25  1  1  0  0  0
  4  5  2  0  0  0  0
  4  7  1  0  0  0  0
  5  6  1  0  0  0  0
  5 26  1  0  0  0  0
  6  9  2  0  0  0  0
  6 27  1  0  0  0  0
  7  8  2  0  0  0  0
  7 28  1  0  0  0  0
  8  9  1  0  0  0  0
  8 29  1  0  0  0  0
  9 10  1  0  0  0  0
 11 12  1  0  0  0  0
 11 15  1  0  0  0  0
 12 13  1  0  0  0  0
 12 30  1  0  0  0  0
 12 31  1  0  0  0  0
 13 14  1  0  0  0  0
 13 32  1  0  0  0  0
 13 33  1  0  0  0  0
 14 34  1  0  0  0  0
 14 35  1  0  0  0  0
 15 16  2  0  0  0  0
 15 24  1  0  0  0  0
 16 17  1  0  0  0  0
 16 21  1  0  0  0  0
 17 18  2  0  0  0  0
 17 36  1  0  0  0  0
 18 19  1  0  0  0  0
 18 37  1  0  0  0  0
 19 20  2  0  0  0  0
 19 38  1  0  0  0  0
 20 21  1  0  0  0  0
 20 39  1  0  0  0  0
 21 22  2  0  0  0  0
 22 23  1  0  0  0  0
 22 40  1  0  0  0  0
 23 24  2  0  0  0  0
 24 41  1  0  0  0  0
M  END
$$$$
