Mpro-x2908_ligand
 OpenBabel04052409413D

 30 31  0  0  0  0  0  0  0  0999 V2000
   13.8350   -1.9125   21.4535 Cl  0  0  0  0  0  0  0  0  0  0  0  0
   12.6450   -0.9940   22.2851 C   0  0  0  0  0  0  0  0  0  0  0  0
   13.0167    0.1173   23.0657 C   0  0  0  0  0  0  0  0  0  0  0  0
   12.0300    0.8842   23.7144 C   0  0  0  0  0  0  0  0  0  0  0  0
   10.6686    0.5747   23.5302 C   0  0  0  0  0  0  0  0  0  0  0  0
   11.2901   -1.3303   22.1327 C   0  0  0  0  0  0  0  0  0  0  0  0
   10.3038   -0.5128   22.7095 C   0  0  0  0  0  0  0  0  0  0  0  0
    8.9566   -0.7233   22.3612 N   0  0  0  0  0  0  0  0  0  0  0  0
    8.3757    0.0109   21.4028 C   0  0  0  0  0  0  0  0  0  0  0  0
    8.8729    1.0388   20.9378 O   0  0  0  0  0  0  0  0  0  0  0  0
    7.1941   -0.4791   21.0057 N   0  0  0  0  0  0  0  0  0  0  0  0
    6.4539    0.1101   19.9575 C   0  0  0  0  0  0  0  0  0  0  0  0
    5.2594    0.8202   20.2107 C   0  0  0  0  0  0  0  0  0  0  0  0
    4.6953    0.9468   21.6117 C   0  0  0  0  0  0  0  0  0  0  0  0
    6.9335    0.0512   18.6332 C   0  0  0  0  0  0  0  0  0  0  0  0
    6.3209    0.6589   17.5985 N   0  0  0  0  0  0  0  0  0  0  0  0
    5.1978    1.3563   17.8505 C   0  0  0  0  0  0  0  0  0  0  0  0
    4.6251    1.4636   19.1305 C   0  0  0  0  0  0  0  0  0  0  0  0
   14.0579    0.3786   23.1624 H   0  0  0  0  0  0  0  0  0  0  0  0
   12.3153    1.7355   24.3118 H   0  0  0  0  0  0  0  0  0  0  0  0
    9.9066    1.2013   23.9683 H   0  0  0  0  0  0  0  0  0  0  0  0
   11.0096   -2.1648   21.5087 H   0  0  0  0  0  0  0  0  0  0  0  0
    8.5132   -1.5769   22.6683 H   0  0  0  0  0  0  0  0  0  0  0  0
    6.7731   -1.2378   21.5217 H   0  0  0  0  0  0  0  0  0  0  0  0
    3.6867    1.3610   21.5915 H   0  0  0  0  0  0  0  0  0  0  0  0
    4.6507   -0.0267   22.1002 H   0  0  0  0  0  0  0  0  0  0  0  0
    5.3234    1.6076   22.2105 H   0  0  0  0  0  0  0  0  0  0  0  0
    7.8499   -0.4710   18.4010 H   0  0  0  0  0  0  0  0  0  0  0  0
    4.7658    1.8693   17.0081 H   0  0  0  0  0  0  0  0  0  0  0  0
    3.7306    2.0507   19.2781 H   0  0  0  0  0  0  0  0  0  0  0  0
  1  2  1  0  0  0  0
  2  3  2  0  0  0  0
  2  6  1  0  0  0  0
  3  4  1  0  0  0  0
  3 19  1  0  0  0  0
  4  5  2  0  0  0  0
  4 20  1  0  0  0  0
  5  7  1  0  0  0  0
  5 21  1  0  0  0  0
  6  7  2  0  0  0  0
  6 22  1  0  0  0  0
  7  8  1  0  0  0  0
  8  9  1  0  0  0  0
  8 23  1  0  0  0  0
  9 10  2  0  0  0  0
  9 11  1  0  0  0  0
 11 12  1  0  0  0  0
 11 24  1  0  0  0  0
 12 13  2  0  0  0  0
 12 15  1  0  0  0  0
 13 14  1  0  0  0  0
 13 18  1  0  0  0  0
 14 25  1  0  0  0  0
 14 26  1  0  0  0  0
 14 27  1  0  0  0  0
 15 16  2  0  0  0  0
 15 28  1  0  0  0  0
 16 17  1  0  0  0  0
 17 18  2  0  0  0  0
 17 29  1  0  0  0  0
 18 30  1  0  0  0  0
M  END
$$$$
