Mpro-x10466_ligand
 OpenBabel04052409413D

 32 34  0  0  0  0  0  0  0  0999 V2000
    8.5289    1.0105   21.4456 O   0  0  0  0  0  0  0  0  0  0  0  0
    8.3039   -0.1920   21.6056 C   0  0  0  0  0  0  0  0  0  0  0  0
    8.8868   -0.9268   22.8176 C   0  0  0  0  0  0  0  0  0  0  0  0
   10.3632   -0.6173   22.9536 C   0  0  0  0  0  0  0  0  0  0  0  0
   10.8013    0.4550   23.7601 C   0  0  0  0  0  0  0  0  0  0  0  0
   12.1641    0.8043   23.7839 C   0  0  0  0  0  0  0  0  0  0  0  0
   13.0898    0.0850   23.0049 C   0  0  0  0  0  0  0  0  0  0  0  0
   11.2987   -1.3683   22.2170 C   0  0  0  0  0  0  0  0  0  0  0  0
   12.6568   -1.0076   22.2297 C   0  0  0  0  0  0  0  0  0  0  0  0
   13.7650   -1.8641   21.2309 Cl  0  0  0  0  0  0  0  0  0  0  0  0
    7.5708   -0.9286   20.7532 N   0  0  0  0  0  0  0  0  0  0  0  0
    6.8862   -0.2893   19.7334 N   0  0  0  0  0  0  0  0  0  0  0  0
    5.7899    0.5413   19.8844 C   0  0  0  0  0  0  0  0  0  0  0  0
    5.5193    0.9395   18.5413 C   0  0  0  0  0  0  0  0  0  0  0  0
    6.3964    0.3510   17.6401 N   0  0  0  0  0  0  0  0  0  0  0  0
    7.1739   -0.3835   18.4316 C   0  0  0  0  0  0  0  0  0  0  0  0
    5.0119    0.9901   20.9659 C   0  0  0  0  0  0  0  0  0  0  0  0
    3.9436    1.8707   20.7121 C   0  0  0  0  0  0  0  0  0  0  0  0
    3.6744    2.2985   19.3949 C   0  0  0  0  0  0  0  0  0  0  0  0
    4.4570    1.8382   18.3169 C   0  0  0  0  0  0  0  0  0  0  0  0
    8.7440   -2.0044   22.7226 H   0  0  0  0  0  0  0  0  0  0  0  0
    8.3550   -0.6113   23.7157 H   0  0  0  0  0  0  0  0  0  0  0  0
   10.0909    1.0378   24.3276 H   0  0  0  0  0  0  0  0  0  0  0  0
   12.4922    1.6453   24.3730 H   0  0  0  0  0  0  0  0  0  0  0  0
   14.1275    0.3772   22.9928 H   0  0  0  0  0  0  0  0  0  0  0  0
   10.9686   -2.1900   21.5989 H   0  0  0  0  0  0  0  0  0  0  0  0
    7.5307   -1.9371   20.7253 H   0  0  0  0  0  0  0  0  0  0  0  0
    7.9945   -0.9731   18.0506 H   0  0  0  0  0  0  0  0  0  0  0  0
    5.2339    0.6714   21.9732 H   0  0  0  0  0  0  0  0  0  0  0  0
    3.3380    2.2328   21.5297 H   0  0  0  0  0  0  0  0  0  0  0  0
    2.8634    2.9852   19.2048 H   0  0  0  0  0  0  0  0  0  0  0  0
    4.2454    2.1819   17.3159 H   0  0  0  0  0  0  0  0  0  0  0  0
  1  2  2  0  0  0  0
  2  3  1  0  0  0  0
  2 11  1  0  0  0  0
  3  4  1  0  0  0  0
  3 21  1  0  0  0  0
  3 22  1  0  0  0  0
  4  5  2  0  0  0  0
  4  8  1  0  0  0  0
  5  6  1  0  0  0  0
  5 23  1  0  0  0  0
  6  7  2  0  0  0  0
  6 24  1  0  0  0  0
  7  9  1  0  0  0  0
  7 25  1  0  0  0  0
  8  9  2  0  0  0  0
  8 26  1  0  0  0  0
  9 10  1  0  0  0  0
 11 12  1  0  0  0  0
 11 27  1  0  0  0  0
 12 13  1  0  0  0  0
 12 16  1  0  0  0  0
 13 14  2  0  0  0  0
 13 17  1  0  0  0  0
 14 15  1  0  0  0  0
 14 20  1  0  0  0  0
 15 16  2  0  0  0  0
 16 28  1  0  0  0  0
 17 18  2  0  0  0  0
 17 29  1  0  0  0  0
 18 19  1  0  0  0  0
 18 30  1  0  0  0  0
 19 20  2  0  0  0  0
 19 31  1  0  0  0  0
 20 32  1  0  0  0  0
M  END
$$$$
