Mpro-x10959_ligand
 OpenBabel04052409413D

 34 36  0  0  0  0  0  0  0  0999 V2000
    8.7936    0.7499   20.9852 O   0  0  0  0  0  0  0  0  0  0  0  0
    8.2395   -0.2873   21.3568 C   0  0  0  0  0  0  0  0  0  0  0  0
    8.7863   -1.1004   22.5363 C   0  0  0  0  0  0  0  0  0  0  0  0
   10.2488   -0.7892   22.7655 C   0  0  0  0  0  0  0  0  0  0  0  0
   10.6372    0.2618   23.6208 C   0  0  0  0  0  0  0  0  0  0  0  0
   11.9957    0.6114   23.7298 C   0  0  0  0  0  0  0  0  0  0  0  0
   12.9649   -0.0830   22.9797 C   0  0  0  0  0  0  0  0  0  0  0  0
   11.2241   -1.5114   22.0582 C   0  0  0  0  0  0  0  0  0  0  0  0
   12.5757   -1.1449   22.1413 C   0  0  0  0  0  0  0  0  0  0  0  0
   13.7313   -1.9864   21.1864 Cl  0  0  0  0  0  0  0  0  0  0  0  0
    7.1307   -0.7608   20.7761 N   0  0  0  0  0  0  0  0  0  0  0  0
    6.4142   -0.0539   19.7888 C   0  0  0  0  0  0  0  0  0  0  0  0
    5.2844    0.7283   20.1161 C   0  0  0  0  0  0  0  0  0  0  0  0
    4.7869    0.8205   21.4347 C   0  0  0  0  0  0  0  0  0  0  0  0
    3.6728    1.6347   21.7098 C   0  0  0  0  0  0  0  0  0  0  0  0
    3.0555    2.3643   20.6763 C   0  0  0  0  0  0  0  0  0  0  0  0
    3.5432    2.2766   19.3596 C   0  0  0  0  0  0  0  0  0  0  0  0
    4.6487    1.4512   19.0792 C   0  0  0  0  0  0  0  0  0  0  0  0
    5.1481    1.3261   17.7690 C   0  0  0  0  0  0  0  0  0  0  0  0
    6.2084    0.5579   17.4527 N   0  0  0  0  0  0  0  0  0  0  0  0
    6.8307   -0.1089   18.4453 C   0  0  0  0  0  0  0  0  0  0  0  0
    8.6585   -2.1681   22.3513 H   0  0  0  0  0  0  0  0  0  0  0  0
    8.2223   -0.8560   23.4345 H   0  0  0  0  0  0  0  0  0  0  0  0
    9.8909    0.8236   24.1622 H   0  0  0  0  0  0  0  0  0  0  0  0
   12.2899    1.4302   24.3656 H   0  0  0  0  0  0  0  0  0  0  0  0
   14.0027    0.2026   23.0402 H   0  0  0  0  0  0  0  0  0  0  0  0
   10.9249   -2.3250   21.4196 H   0  0  0  0  0  0  0  0  0  0  0  0
    6.6990   -1.5940   21.1590 H   0  0  0  0  0  0  0  0  0  0  0  0
    5.2500    0.2759   22.2435 H   0  0  0  0  0  0  0  0  0  0  0  0
    3.2927    1.6987   22.7174 H   0  0  0  0  0  0  0  0  0  0  0  0
    2.2032    2.9913   20.8944 H   0  0  0  0  0  0  0  0  0  0  0  0
    3.0686    2.8409   18.5696 H   0  0  0  0  0  0  0  0  0  0  0  0
    4.7065    1.8757   16.9530 H   0  0  0  0  0  0  0  0  0  0  0  0
    7.6951   -0.6917   18.1616 H   0  0  0  0  0  0  0  0  0  0  0  0
  1  2  2  0  0  0  0
  2  3  1  0  0  0  0
  2 11  1  0  0  0  0
  3  4  1  0  0  0  0
  3 22  1  0  0  0  0
  3 23  1  0  0  0  0
  4  5  2  0  0  0  0
  4  8  1  0  0  0  0
  5  6  1  0  0  0  0
  5 24  1  0  0  0  0
  6  7  2  0  0  0  0
  6 25  1  0  0  0  0
  7  9  1  0  0  0  0
  7 26  1  0  0  0  0
  8  9  2  0  0  0  0
  8 27  1  0  0  0  0
  9 10  1  0  0  0  0
 11 12  1  0  0  0  0
 11 28  1  0  0  0  0
 12 13  2  0  0  0  0
 12 21  1  0  0  0  0
 13 14  1  0  0  0  0
 13 18  1  0  0  0  0
 14 15  2  0  0  0  0
 14 29  1  0  0  0  0
 15 16  1  0  0  0  0
 15 30  1  0  0  0  0
 16 17  2  0  0  0  0
 16 31  1  0  0  0  0
 17 18  1  0  0  0  0
 17 32  1  0  0  0  0
 18 19  2  0  0  0  0
 19 20  1  0  0  0  0
 19 33  1  0  0  0  0
 20 21  2  0  0  0  0
 21 34  1  0  0  0  0
M  END
$$$$
