Mpro-x11562_ligand
 OpenBabel04052409413D

 44 45  0  0  0  0  0  0  0  0999 V2000
    8.7537    0.6586   20.9436 O   0  0  0  0  0  0  0  0  0  0  0  0
    8.1572   -0.3854   21.2194 C   0  0  0  0  0  0  0  0  0  0  0  0
    6.9538   -0.6845   20.7204 N   0  0  0  0  0  0  0  0  0  0  0  0
    6.3026    0.0816   19.7366 C   0  0  0  0  0  0  0  0  0  0  0  0
    5.1950    0.8996   20.0490 C   0  0  0  0  0  0  0  0  0  0  0  0
    4.6645    1.0089   21.4656 C   0  0  0  0  0  0  0  0  0  0  0  0
    4.6085    1.6453   19.0081 C   0  0  0  0  0  0  0  0  0  0  0  0
    5.1392    1.5233   17.7100 C   0  0  0  0  0  0  0  0  0  0  0  0
    6.1838    0.7280   17.4053 N   0  0  0  0  0  0  0  0  0  0  0  0
    6.7517    0.0253   18.4043 C   0  0  0  0  0  0  0  0  0  0  0  0
    8.7407   -1.4117   22.1974 C   0  0  0  0  0  0  0  0  0  0  0  0
   10.0554   -0.9220   22.7674 C   0  0  0  0  0  0  0  0  0  0  0  0
   11.2586   -1.4488   22.2748 C   0  0  0  0  0  0  0  0  0  0  0  0
   12.4798   -0.8973   22.6823 C   0  0  0  0  0  0  0  0  0  0  0  0
   13.9251   -1.5314   22.0148 Cl  0  0  0  0  0  0  0  0  0  0  0  0
   12.5093    0.1667   23.6038 C   0  0  0  0  0  0  0  0  0  0  0  0
   11.3070    0.6468   24.1581 C   0  0  0  0  0  0  0  0  0  0  0  0
   10.0751    0.1023   23.7367 C   0  0  0  0  0  0  0  0  0  0  0  0
    8.8788    0.6176   24.1584 O   0  0  0  0  0  0  0  0  0  0  0  0
    8.6191    0.5099   25.5441 C   0  0  0  0  0  0  0  0  0  0  0  0
    7.1320    0.8252   25.7602 C   0  0  0  0  0  0  0  0  0  0  0  0
    6.1903   -0.1353   25.0108 C   0  0  0  0  0  0  0  0  0  0  0  0
    4.7126    0.1968   25.2416 C   0  0  0  0  0  0  0  0  0  0  0  0
    6.4827   -1.5148   21.0612 H   0  0  0  0  0  0  0  0  0  0  0  0
    3.7058    1.5268   21.4874 H   0  0  0  0  0  0  0  0  0  0  0  0
    4.5234    0.0207   21.9037 H   0  0  0  0  0  0  0  0  0  0  0  0
    5.3677    1.5630   22.0881 H   0  0  0  0  0  0  0  0  0  0  0  0
    3.7776    2.3093   19.1941 H   0  0  0  0  0  0  0  0  0  0  0  0
    4.7422    2.1095   16.8979 H   0  0  0  0  0  0  0  0  0  0  0  0
    7.5964   -0.5921   18.1352 H   0  0  0  0  0  0  0  0  0  0  0  0
    8.8857   -2.3600   21.6791 H   0  0  0  0  0  0  0  0  0  0  0  0
    8.0384   -1.5985   23.0093 H   0  0  0  0  0  0  0  0  0  0  0  0
   11.2488   -2.2441   21.5465 H   0  0  0  0  0  0  0  0  0  0  0  0
   13.4525    0.5957   23.8985 H   0  0  0  0  0  0  0  0  0  0  0  0
   11.3265    1.4644   24.8621 H   0  0  0  0  0  0  0  0  0  0  0  0
    9.2391    1.2178   26.0940 H   0  0  0  0  0  0  0  0  0  0  0  0
    8.8530   -0.4932   25.9062 H   0  0  0  0  0  0  0  0  0  0  0  0
    6.9357    1.8495   25.4418 H   0  0  0  0  0  0  0  0  0  0  0  0
    6.9144    0.7896   26.8281 H   0  0  0  0  0  0  0  0  0  0  0  0
    6.3862   -1.1622   25.3213 H   0  0  0  0  0  0  0  0  0  0  0  0
    6.3927   -0.0914   23.9404 H   0  0  0  0  0  0  0  0  0  0  0  0
    4.0662   -0.4839   24.6912 H   0  0  0  0  0  0  0  0  0  0  0  0
    4.4530    0.1213   26.2976 H   0  0  0  0  0  0  0  0  0  0  0  0
    4.4816    1.2097   24.9109 H   0  0  0  0  0  0  0  0  0  0  0  0
  1  2  2  0  0  0  0
  2  3  1  0  0  0  0
  2 11  1  0  0  0  0
  3  4  1  0  0  0  0
  3 24  1  0  0  0  0
  4  5  2  0  0  0  0
  4 10  1  0  0  0  0
  5  6  1  0  0  0  0
  5  7  1  0  0  0  0
  6 25  1  0  0  0  0
  6 26  1  0  0  0  0
  6 27  1  0  0  0  0
  7  8  2  0  0  0  0
  7 28  1  0  0  0  0
  8  9  1  0  0  0  0
  8 29  1  0  0  0  0
  9 10  2  0  0  0  0
 10 30  1  0  0  0  0
 11 12  1  0  0  0  0
 11 31  1  0  0  0  0
 11 32  1  0  0  0  0
 12 13  2  0  0  0  0
 12 18  1  0  0  0  0
 13 14  1  0  0  0  0
 13 33  1  0  0  0  0
 14 15  1  0  0  0  0
 14 16  2  0  0  0  0
 16 17  1  0  0  0  0
 16 34  1  0  0  0  0
 17 18  2  0  0  0  0
 17 35  1  0  0  0  0
 18 19  1  0  0  0  0
 19 20  1  0  0  0  0
 20 21  1  0  0  0  0
 20 36  1  0  0  0  0
 20 37  1  0  0  0  0
 21 22  1  0  0  0  0
 21 38  1  0  0  0  0
 21 39  1  0  0  0  0
 22 23  1  0  0  0  0
 22 40  1  0  0  0  0
 22 41  1  0  0  0  0
 23 42  1  0  0  0  0
 23 43  1  0  0  0  0
 23 44  1  0  0  0  0
M  END
$$$$
