Mpro-x2910_ligand
 OpenBabel04052409413D

 43 45  0  0  0  0  0  0  0  0999 V2000
    6.2502    1.0940   16.8045 O   0  0  0  0  0  0  0  0  0  0  0  0
    5.7599    0.8602   17.9012 C   0  0  0  0  0  0  0  0  0  0  0  0
    6.1963   -0.2244   18.7817 C   0  0  0  0  0  0  0  0  0  0  0  0
    4.7601    1.6308   18.3658 N   0  0  0  0  0  0  0  0  0  0  0  0
    4.1422    1.4892   19.6267 C   0  0  0  0  0  0  0  0  0  0  0  0
    4.5776    0.4747   20.5068 C   0  0  0  0  0  0  0  0  0  0  0  0
    3.9792    0.3794   21.7849 C   0  0  0  0  0  0  0  0  0  0  0  0
    2.9383    1.2549   22.1483 C   0  0  0  0  0  0  0  0  0  0  0  0
    2.4916    2.2388   21.2453 C   0  0  0  0  0  0  0  0  0  0  0  0
    3.0996    2.3634   19.9839 C   0  0  0  0  0  0  0  0  0  0  0  0
    5.6524   -0.4083   20.0044 C   0  0  0  0  0  0  0  0  0  0  0  0
    6.0193   -1.5752   20.7930 C   0  0  0  0  0  0  0  0  0  0  0  0
    5.2759   -2.5272   21.0256 O   0  0  0  0  0  0  0  0  0  0  0  0
    7.2702   -1.5105   21.2650 N   0  0  0  0  0  0  0  0  0  0  0  0
    7.8558   -2.5216   22.1365 C   0  0  0  0  0  0  0  0  0  0  0  0
    9.3732   -2.3830   22.1805 C   0  0  0  0  0  0  0  0  0  0  0  0
    9.7018   -1.1333   22.7651 O   0  0  0  0  0  0  0  0  0  0  0  0
   11.0140   -0.7208   22.7080 C   0  0  0  0  0  0  0  0  0  0  0  0
   11.2879    0.5940   23.1447 C   0  0  0  0  0  0  0  0  0  0  0  0
   10.2173    1.3397   23.5914 O   0  0  0  0  0  0  0  0  0  0  0  0
   10.4309    2.7157   23.8614 C   0  0  0  0  0  0  0  0  0  0  0  0
   12.0685   -1.5348   22.2255 C   0  0  0  0  0  0  0  0  0  0  0  0
   13.3790   -1.0367   22.1553 C   0  0  0  0  0  0  0  0  0  0  0  0
   13.6502    0.2677   22.5990 C   0  0  0  0  0  0  0  0  0  0  0  0
   12.6168    1.0809   23.0932 C   0  0  0  0  0  0  0  0  0  0  0  0
    6.9418   -0.9162   18.4207 H   0  0  0  0  0  0  0  0  0  0  0  0
    4.4534    2.4021   17.7858 H   0  0  0  0  0  0  0  0  0  0  0  0
    4.2981   -0.3674   22.4949 H   0  0  0  0  0  0  0  0  0  0  0  0
    2.4783    1.1674   23.1206 H   0  0  0  0  0  0  0  0  0  0  0  0
    1.6890    2.9044   21.5264 H   0  0  0  0  0  0  0  0  0  0  0  0
    2.7683    3.1263   19.2947 H   0  0  0  0  0  0  0  0  0  0  0  0
    7.8296   -0.6953   21.0479 H   0  0  0  0  0  0  0  0  0  0  0  0
    7.6032   -3.5190   21.7739 H   0  0  0  0  0  0  0  0  0  0  0  0
    7.4418   -2.4277   23.1397 H   0  0  0  0  0  0  0  0  0  0  0  0
    9.7637   -2.4603   21.1666 H   0  0  0  0  0  0  0  0  0  0  0  0
    9.8004   -3.1908   22.7760 H   0  0  0  0  0  0  0  0  0  0  0  0
    9.4865    3.1787   24.1475 H   0  0  0  0  0  0  0  0  0  0  0  0
   11.1300    2.8546   24.6851 H   0  0  0  0  0  0  0  0  0  0  0  0
   10.8025    3.2401   22.9793 H   0  0  0  0  0  0  0  0  0  0  0  0
   11.8936   -2.5431   21.8907 H   0  0  0  0  0  0  0  0  0  0  0  0
   14.1704   -1.6600   21.7686 H   0  0  0  0  0  0  0  0  0  0  0  0
   14.6496    0.6636   22.5389 H   0  0  0  0  0  0  0  0  0  0  0  0
   12.8707    2.0801   23.4123 H   0  0  0  0  0  0  0  0  0  0  0  0
  1  2  2  0  0  0  0
  2  3  1  0  0  0  0
  2  4  1  0  0  0  0
  3 11  2  0  0  0  0
  3 26  1  0  0  0  0
  4  5  1  0  0  0  0
  4 27  1  0  0  0  0
  5  6  2  0  0  0  0
  5 10  1  0  0  0  0
  6  7  1  0  0  0  0
  6 11  1  0  0  0  0
  7  8  2  0  0  0  0
  7 28  1  0  0  0  0
  8  9  1  0  0  0  0
  8 29  1  0  0  0  0
  9 10  2  0  0  0  0
  9 30  1  0  0  0  0
 10 31  1  0  0  0  0
 11 12  1  0  0  0  0
 12 13  2  0  0  0  0
 12 14  1  0  0  0  0
 14 15  1  0  0  0  0
 14 32  1  0  0  0  0
 15 16  1  0  0  0  0
 15 33  1  0  0  0  0
 15 34  1  0  0  0  0
 16 17  1  0  0  0  0
 16 35  1  0  0  0  0
 16 36  1  0  0  0  0
 17 18  1  0  0  0  0
 18 19  2  0  0  0  0
 18 22  1  0  0  0  0
 19 20  1  0  0  0  0
 19 25  1  0  0  0  0
 20 21  1  0  0  0  0
 21 37  1  0  0  0  0
 21 38  1  0  0  0  0
 21 39  1  0  0  0  0
 22 23  2  0  0  0  0
 22 40  1  0  0  0  0
 23 24  1  0  0  0  0
 23 41  1  0  0  0  0
 24 25  2  0  0  0  0
 24 42  1  0  0  0  0
 25 43  1  0  0  0  0
M  END
$$$$
