Mpro-x11723_ligand
 OpenBabel04052409413D

 43 45  0  0  0  0  0  0  0  0999 V2000
    8.5934    0.5411   20.8135 O   0  0  0  0  0  0  0  0  0  0  0  0
    7.9882   -0.4991   21.0839 C   0  0  0  0  0  0  0  0  0  0  0  0
    6.7927   -0.8027   20.5654 N   0  0  0  0  0  0  0  0  0  0  0  0
    6.1305   -0.0016   19.6159 C   0  0  0  0  0  0  0  0  0  0  0  0
    5.0106    0.7820   19.9665 C   0  0  0  0  0  0  0  0  0  0  0  0
    4.4815    0.8098   21.3869 C   0  0  0  0  0  0  0  0  0  0  0  0
    4.4075    1.5664   18.9635 C   0  0  0  0  0  0  0  0  0  0  0  0
    4.9322    1.5083   17.6589 C   0  0  0  0  0  0  0  0  0  0  0  0
    5.9938    0.7508   17.3177 N   0  0  0  0  0  0  0  0  0  0  0  0
    6.5817    0.0180   18.2839 C   0  0  0  0  0  0  0  0  0  0  0  0
    8.5481   -1.5212   22.0774 C   0  0  0  0  0  0  0  0  0  0  0  0
    9.8675   -1.0664   22.6559 C   0  0  0  0  0  0  0  0  0  0  0  0
   11.0722   -1.5417   22.1180 C   0  0  0  0  0  0  0  0  0  0  0  0
   12.2922   -1.0553   22.6020 C   0  0  0  0  0  0  0  0  0  0  0  0
   13.7462   -1.6563   21.9167 Cl  0  0  0  0  0  0  0  0  0  0  0  0
   12.3151   -0.1098   23.6464 C   0  0  0  0  0  0  0  0  0  0  0  0
    9.8851   -0.1507   23.7226 C   0  0  0  0  0  0  0  0  0  0  0  0
   11.1122    0.3241   24.2431 C   0  0  0  0  0  0  0  0  0  0  0  0
   11.2066    1.1930   25.3088 O   0  0  0  0  0  0  0  0  0  0  0  0
   10.0119    1.7563   25.8524 C   0  0  0  0  0  0  0  0  0  0  0  0
    9.2970    0.7583   26.7142 C   0  0  0  0  0  0  0  0  0  0  0  0
    9.9413   -0.3452   27.1703 O   0  0  0  0  0  0  0  0  0  0  0  0
    9.0005   -1.0474   27.9397 N   0  0  0  0  0  0  0  0  0  0  0  0
    8.0328    0.8441   27.1176 N   0  0  0  0  0  0  0  0  0  0  0  0
    7.9143   -0.2874   27.8611 C   0  0  0  0  0  0  0  0  0  0  0  0
    6.6502   -0.6609   28.5531 C   0  0  0  0  0  0  0  0  0  0  0  0
    6.3131   -1.6253   20.9081 H   0  0  0  0  0  0  0  0  0  0  0  0
    3.5528    1.3775   21.4518 H   0  0  0  0  0  0  0  0  0  0  0  0
    4.2883   -0.1995   21.7488 H   0  0  0  0  0  0  0  0  0  0  0  0
    5.2131    1.2722   22.0494 H   0  0  0  0  0  0  0  0  0  0  0  0
    3.5603    2.2002   19.1799 H   0  0  0  0  0  0  0  0  0  0  0  0
    4.5001    2.0981   16.8673 H   0  0  0  0  0  0  0  0  0  0  0  0
    7.4373   -0.5725   17.9913 H   0  0  0  0  0  0  0  0  0  0  0  0
    8.6676   -2.4864   21.5840 H   0  0  0  0  0  0  0  0  0  0  0  0
    7.8394   -1.6588   22.8939 H   0  0  0  0  0  0  0  0  0  0  0  0
   11.0640   -2.2755   21.3307 H   0  0  0  0  0  0  0  0  0  0  0  0
   13.2621    0.2528   24.0179 H   0  0  0  0  0  0  0  0  0  0  0  0
    8.9352    0.1727   24.1193 H   0  0  0  0  0  0  0  0  0  0  0  0
    9.3447    2.1305   25.0788 H   0  0  0  0  0  0  0  0  0  0  0  0
   10.2737    2.6158   26.4627 H   0  0  0  0  0  0  0  0  0  0  0  0
    5.8354   -0.0053   28.2454 H   0  0  0  0  0  0  0  0  0  0  0  0
    6.3755   -1.6870   28.3085 H   0  0  0  0  0  0  0  0  0  0  0  0
    6.7730   -0.5745   29.6322 H   0  0  0  0  0  0  0  0  0  0  0  0
  1  2  2  0  0  0  0
  2  3  1  0  0  0  0
  2 11  1  0  0  0  0
  3  4  1  0  0  0  0
  3 27  1  0  0  0  0
  4  5  2  0  0  0  0
  4 10  1  0  0  0  0
  5  6  1  0  0  0  0
  5  7  1  0  0  0  0
  6 28  1  0  0  0  0
  6 29  1  0  0  0  0
  6 30  1  0  0  0  0
  7  8  2  0  0  0  0
  7 31  1  0  0  0  0
  8  9  1  0  0  0  0
  8 32  1  0  0  0  0
  9 10  2  0  0  0  0
 10 33  1  0  0  0  0
 11 12  1  0  0  0  0
 11 34  1  0  0  0  0
 11 35  1  0  0  0  0
 12 13  2  0  0  0  0
 12 17  1  0  0  0  0
 13 14  1  0  0  0  0
 13 36  1  0  0  0  0
 14 15  1  0  0  0  0
 14 16  2  0  0  0  0
 16 18  1  0  0  0  0
 16 37  1  0  0  0  0
 17 18  2  0  0  0  0
 17 38  1  0  0  0  0
 18 19  1  0  0  0  0
 19 20  1  0  0  0  0
 20 21  1  0  0  0  0
 20 39  1  0  0  0  0
 20 40  1  0  0  0  0
 21 22  1  0  0  0  0
 21 24  2  0  0  0  0
 22 23  1  0  0  0  0
 23 25  2  0  0  0  0
 24 25  1  0  0  0  0
 25 26  1  0  0  0  0
 26 41  1  0  0  0  0
 26 42  1  0  0  0  0
 26 43  1  0  0  0  0
M  END
$$$$
