Mpro-x10236_ligand
 OpenBabel04052409413D

 49 51  0  0  0  0  0  0  0  0999 V2000
    9.0433   -0.6595   22.5800 N   0  0  0  0  0  0  0  0  0  0  0  0
    6.2290    0.5562   17.8006 N   0  0  0  0  0  0  0  0  0  0  0  0
    7.5056   -5.4817   27.0637 C   0  0  0  0  0  0  0  0  0  0  0  0
   13.1734    0.0761   22.9835 C   0  0  0  0  0  0  0  0  0  0  0  0
    5.1733    1.3441   18.0804 C   0  0  0  0  0  0  0  0  0  0  0  0
    8.5085   -3.4696   25.1171 C   0  0  0  0  0  0  0  0  0  0  0  0
   12.2589    0.7832   23.7874 C   0  0  0  0  0  0  0  0  0  0  0  0
    5.3608    0.9156   20.4497 C   0  0  0  0  0  0  0  0  0  0  0  0
    8.3378   -1.3675   23.6549 C   0  0  0  0  0  0  0  0  0  0  0  0
   11.3453   -1.1858   21.9997 C   0  0  0  0  0  0  0  0  0  0  0  0
   10.4276   -0.4478   22.7688 C   0  0  0  0  0  0  0  0  0  0  0  0
    8.9822   -5.4447   26.6419 C   0  0  0  0  0  0  0  0  0  0  0  0
    7.0195   -3.5347   25.5098 C   0  0  0  0  0  0  0  0  0  0  0  0
    4.6949    1.5509   19.3858 C   0  0  0  0  0  0  0  0  0  0  0  0
    9.1447   -4.8667   25.2315 C   0  0  0  0  0  0  0  0  0  0  0  0
    6.8535   -4.0978   26.9300 C   0  0  0  0  0  0  0  0  0  0  0  0
    6.8755   -0.0402   18.8189 C   0  0  0  0  0  0  0  0  0  0  0  0
    8.4547   -0.0374   21.5301 C   0  0  0  0  0  0  0  0  0  0  0  0
   12.7172   -0.9151   22.0951 C   0  0  0  0  0  0  0  0  0  0  0  0
    7.2274   -0.4750   21.2068 N   0  0  0  0  0  0  0  0  0  0  0  0
    9.0106    0.8625   20.8965 O   0  0  0  0  0  0  0  0  0  0  0  0
    8.7467   -2.8522   23.7279 C   0  0  0  0  0  0  0  0  0  0  0  0
   10.8820    0.5222   23.6841 C   0  0  0  0  0  0  0  0  0  0  0  0
    6.4803    0.1109   20.1632 C   0  0  0  0  0  0  0  0  0  0  0  0
   13.8181   -1.8000   21.1144 Cl  0  0  0  0  0  0  0  0  0  0  0  0
    7.4214   -5.8395   28.0899 H   0  0  0  0  0  0  0  0  0  0  0  0
    6.9648   -6.1968   26.4437 H   0  0  0  0  0  0  0  0  0  0  0  0
   14.2236    0.2970   23.0440 H   0  0  0  0  0  0  0  0  0  0  0  0
    4.7074    1.8321   17.2402 H   0  0  0  0  0  0  0  0  0  0  0  0
    9.0099   -2.8295   25.8438 H   0  0  0  0  0  0  0  0  0  0  0  0
   12.6079    1.5427   24.4649 H   0  0  0  0  0  0  0  0  0  0  0  0
    5.0444    1.0848   21.4667 H   0  0  0  0  0  0  0  0  0  0  0  0
    7.2534   -1.2821   23.5851 H   0  0  0  0  0  0  0  0  0  0  0  0
    8.5979   -0.8728   24.5919 H   0  0  0  0  0  0  0  0  0  0  0  0
   10.9911   -1.9548   21.3336 H   0  0  0  0  0  0  0  0  0  0  0  0
    9.4032   -6.4468   26.6684 H   0  0  0  0  0  0  0  0  0  0  0  0
    9.5549   -4.8485   27.3523 H   0  0  0  0  0  0  0  0  0  0  0  0
    6.4739   -4.1557   24.7981 H   0  0  0  0  0  0  0  0  0  0  0  0
    6.5671   -2.5442   25.4680 H   0  0  0  0  0  0  0  0  0  0  0  0
    3.8459    2.1926   19.5635 H   0  0  0  0  0  0  0  0  0  0  0  0
   10.2070   -4.8190   24.9875 H   0  0  0  0  0  0  0  0  0  0  0  0
    8.6797   -5.5413   24.5118 H   0  0  0  0  0  0  0  0  0  0  0  0
    7.3061   -3.4104   27.6450 H   0  0  0  0  0  0  0  0  0  0  0  0
    5.7952   -4.1598   27.1856 H   0  0  0  0  0  0  0  0  0  0  0  0
    7.7383   -0.6334   18.5533 H   0  0  0  0  0  0  0  0  0  0  0  0
    6.7690   -1.1345   21.8171 H   0  0  0  0  0  0  0  0  0  0  0  0
    8.2245   -3.4144   22.9555 H   0  0  0  0  0  0  0  0  0  0  0  0
    9.8082   -2.9574   23.5041 H   0  0  0  0  0  0  0  0  0  0  0  0
   10.1780    1.0888   24.2758 H   0  0  0  0  0  0  0  0  0  0  0  0
  1  9  1  0  0  0  0
  1 11  1  0  0  0  0
  1 18  1  0  0  0  0
  2  5  2  0  0  0  0
  2 17  1  0  0  0  0
  3 12  1  0  0  0  0
  3 16  1  0  0  0  0
  3 26  1  0  0  0  0
  3 27  1  0  0  0  0
  4  7  2  0  0  0  0
  4 19  1  0  0  0  0
  4 28  1  0  0  0  0
  5 14  1  0  0  0  0
  5 29  1  0  0  0  0
  6 13  1  0  0  0  0
  6 15  1  0  0  0  0
  6 22  1  0  0  0  0
  6 30  1  0  0  0  0
  7 23  1  0  0  0  0
  7 31  1  0  0  0  0
  8 14  2  0  0  0  0
  8 24  1  0  0  0  0
  8 32  1  0  0  0  0
  9 22  1  0  0  0  0
  9 33  1  0  0  0  0
  9 34  1  0  0  0  0
 10 11  1  0  0  0  0
 10 19  2  0  0  0  0
 10 35  1  0  0  0  0
 11 23  2  0  0  0  0
 12 15  1  0  0  0  0
 12 36  1  0  0  0  0
 12 37  1  0  0  0  0
 13 16  1  0  0  0  0
 13 38  1  0  0  0  0
 13 39  1  0  0  0  0
 14 40  1  0  0  0  0
 15 41  1  0  0  0  0
 15 42  1  0  0  0  0
 16 43  1  0  0  0  0
 16 44  1  0  0  0  0
 17 24  2  0  0  0  0
 17 45  1  0  0  0  0
 18 20  1  0  0  0  0
 18 21  2  0  0  0  0
 19 25  1  0  0  0  0
 20 24  1  0  0  0  0
 20 46  1  0  0  0  0
 22 47  1  0  0  0  0
 22 48  1  0  0  0  0
 23 49  1  0  0  0  0
M  END
$$$$
