Mpro-x11276_ligand
 OpenBabel04052409413D

 43 45  0  0  0  0  0  0  0  0999 V2000
    4.2931   -0.4527   22.6982 F   0  0  0  0  0  0  0  0  0  0  0  0
    3.9251    0.4575   21.7670 C   0  0  0  0  0  0  0  0  0  0  0  0
    2.9119    1.3774   22.1010 C   0  0  0  0  0  0  0  0  0  0  0  0
    2.5037    2.3595   21.1817 C   0  0  0  0  0  0  0  0  0  0  0  0
    3.1220    2.4356   19.9224 C   0  0  0  0  0  0  0  0  0  0  0  0
    4.5286    0.4977   20.4830 C   0  0  0  0  0  0  0  0  0  0  0  0
    4.1295    1.5163   19.5871 C   0  0  0  0  0  0  0  0  0  0  0  0
    4.7598    1.6331   18.3314 N   0  0  0  0  0  0  0  0  0  0  0  0
    5.7530    0.8472   17.8855 C   0  0  0  0  0  0  0  0  0  0  0  0
    6.2927    1.0911   16.8158 O   0  0  0  0  0  0  0  0  0  0  0  0
    6.1295   -0.2639   18.7548 C   0  0  0  0  0  0  0  0  0  0  0  0
    5.5692   -0.4309   19.9730 C   0  0  0  0  0  0  0  0  0  0  0  0
    5.8687   -1.6380   20.7207 C   0  0  0  0  0  0  0  0  0  0  0  0
    5.1686   -2.6486   20.7291 O   0  0  0  0  0  0  0  0  0  0  0  0
    6.9967   -1.5279   21.4320 N   0  0  0  0  0  0  0  0  0  0  0  0
    7.5052   -2.5466   22.3423 C   0  0  0  0  0  0  0  0  0  0  0  0
    9.0285   -2.4809   22.3955 C   0  0  0  0  0  0  0  0  0  0  0  0
    9.4024   -1.2096   22.9009 O   0  0  0  0  0  0  0  0  0  0  0  0
   10.7235   -0.8366   22.7987 C   0  0  0  0  0  0  0  0  0  0  0  0
   11.0306    0.5040   23.1185 C   0  0  0  0  0  0  0  0  0  0  0  0
    9.9781    1.3140   23.4884 O   0  0  0  0  0  0  0  0  0  0  0  0
   10.2166    2.7082   23.5866 C   0  0  0  0  0  0  0  0  0  0  0  0
   11.7548   -1.7133   22.3827 C   0  0  0  0  0  0  0  0  0  0  0  0
   13.0784   -1.2574   22.2699 C   0  0  0  0  0  0  0  0  0  0  0  0
   13.3836    0.0711   22.6077 C   0  0  0  0  0  0  0  0  0  0  0  0
   12.3718    0.9491   23.0308 C   0  0  0  0  0  0  0  0  0  0  0  0
    2.4444    1.3240   23.0726 H   0  0  0  0  0  0  0  0  0  0  0  0
    1.7270    3.0616   21.4469 H   0  0  0  0  0  0  0  0  0  0  0  0
    2.8280    3.1993   19.2170 H   0  0  0  0  0  0  0  0  0  0  0  0
    4.4810    2.4149   17.7503 H   0  0  0  0  0  0  0  0  0  0  0  0
    6.8448   -0.9818   18.3823 H   0  0  0  0  0  0  0  0  0  0  0  0
    7.5222   -0.6660   21.3617 H   0  0  0  0  0  0  0  0  0  0  0  0
    7.2041   -3.5451   22.0215 H   0  0  0  0  0  0  0  0  0  0  0  0
    7.0818   -2.3857   23.3342 H   0  0  0  0  0  0  0  0  0  0  0  0
    9.4239   -2.6346   21.3908 H   0  0  0  0  0  0  0  0  0  0  0  0
    9.4169   -3.2675   23.0436 H   0  0  0  0  0  0  0  0  0  0  0  0
    9.2830    3.2195   23.8202 H   0  0  0  0  0  0  0  0  0  0  0  0
   10.9251    2.9312   24.3823 H   0  0  0  0  0  0  0  0  0  0  0  0
   10.5941    3.1134   22.6462 H   0  0  0  0  0  0  0  0  0  0  0  0
   11.5517   -2.7414   22.1361 H   0  0  0  0  0  0  0  0  0  0  0  0
   13.8567   -1.9271   21.9363 H   0  0  0  0  0  0  0  0  0  0  0  0
   14.3924    0.4335   22.5162 H   0  0  0  0  0  0  0  0  0  0  0  0
   12.6512    1.9653   23.2639 H   0  0  0  0  0  0  0  0  0  0  0  0
  1  2  1  0  0  0  0
  2  3  2  0  0  0  0
  2  6  1  0  0  0  0
  3  4  1  0  0  0  0
  3 27  1  0  0  0  0
  4  5  2  0  0  0  0
  4 28  1  0  0  0  0
  5  7  1  0  0  0  0
  5 29  1  0  0  0  0
  6  7  2  0  0  0  0
  6 12  1  0  0  0  0
  7  8  1  0  0  0  0
  8  9  1  0  0  0  0
  8 30  1  0  0  0  0
  9 10  2  0  0  0  0
  9 11  1  0  0  0  0
 11 12  2  0  0  0  0
 11 31  1  0  0  0  0
 12 13  1  0  0  0  0
 13 14  2  0  0  0  0
 13 15  1  0  0  0  0
 15 16  1  0  0  0  0
 15 32  1  0  0  0  0
 16 17  1  0  0  0  0
 16 33  1  0  0  0  0
 16 34  1  0  0  0  0
 17 18  1  0  0  0  0
 17 35  1  0  0  0  0
 17 36  1  0  0  0  0
 18 19  1  0  0  0  0
 19 20  2  0  0  0  0
 19 23  1  0  0  0  0
 20 21  1  0  0  0  0
 20 26  1  0  0  0  0
 21 22  1  0  0  0  0
 22 37  1  0  0  0  0
 22 38  1  0  0  0  0
 22 39  1  0  0  0  0
 23 24  2  0  0  0  0
 23 40  1  0  0  0  0
 24 25  1  0  0  0  0
 24 41  1  0  0  0  0
 25 26  2  0  0  0  0
 25 42  1  0  0  0  0
 26 43  1  0  0  0  0
M  END
$$$$
