Mpro-x11488_ligand
 OpenBabel04052409413D

 36 37  0  0  0  0  0  0  0  0999 V2000
   13.4994   -2.1751   21.4005 Cl  0  0  0  0  0  0  0  0  0  0  0  0
   12.5375   -1.0242   22.2465 C   0  0  0  0  0  0  0  0  0  0  0  0
   13.1620    0.0857   22.8419 C   0  0  0  0  0  0  0  0  0  0  0  0
   12.3855    1.0628   23.4839 C   0  0  0  0  0  0  0  0  0  0  0  0
   10.9899    0.9313   23.5471 C   0  0  0  0  0  0  0  0  0  0  0  0
   11.1333   -1.1507   22.2873 C   0  0  0  0  0  0  0  0  0  0  0  0
   10.3518   -0.1655   22.9347 C   0  0  0  0  0  0  0  0  0  0  0  0
    8.8816   -0.1736   22.8800 C   0  0  0  0  0  0  0  0  0  0  0  0
    8.0810   -0.4596   23.9831 C   0  0  0  0  0  0  0  0  0  0  0  0
    6.8320   -0.4248   24.0921 O   0  5  0  0  0  0  0  0  0  0  0  0
    8.8143   -0.8003   25.1051 O   0  0  0  0  0  0  0  0  0  0  0  0
    8.1309   -0.9330   26.3514 C   0  0  0  0  0  0  0  0  0  0  0  0
    8.3722    0.2860   21.5899 C   0  0  0  0  0  0  0  0  0  0  0  0
    8.9186    1.1749   20.9364 O   0  0  0  0  0  0  0  0  0  0  0  0
    7.2406   -0.3064   21.1743 N   0  0  0  0  0  0  0  0  0  0  0  0
    6.4938    0.1867   20.0796 C   0  0  0  0  0  0  0  0  0  0  0  0
    5.3037    0.9181   20.2873 C   0  0  0  0  0  0  0  0  0  0  0  0
    4.7324    1.1248   21.6756 C   0  0  0  0  0  0  0  0  0  0  0  0
    4.6702    1.4979   19.1713 C   0  0  0  0  0  0  0  0  0  0  0  0
    5.2369    1.3023   17.8990 C   0  0  0  0  0  0  0  0  0  0  0  0
    6.3450    0.5647   17.6884 N   0  0  0  0  0  0  0  0  0  0  0  0
    6.9562    0.0169   18.7587 C   0  0  0  0  0  0  0  0  0  0  0  0
   14.2325    0.2044   22.7830 H   0  0  0  0  0  0  0  0  0  0  0  0
   12.8577    1.9332   23.8988 H   0  0  0  0  0  0  0  0  0  0  0  0
   10.4044    1.7035   24.0242 H   0  0  0  0  0  0  0  0  0  0  0  0
   10.6577   -1.9817   21.7898 H   0  0  0  0  0  0  0  0  0  0  0  0
    8.8523   -1.1107   27.1477 H   0  0  0  0  0  0  0  0  0  0  0  0
    7.5822   -0.0286   26.6155 H   0  0  0  0  0  0  0  0  0  0  0  0
    7.4406   -1.7763   26.3359 H   0  0  0  0  0  0  0  0  0  0  0  0
    6.7932   -0.9737   21.7905 H   0  0  0  0  0  0  0  0  0  0  0  0
    3.7634    1.6223   21.6324 H   0  0  0  0  0  0  0  0  0  0  0  0
    4.6022    0.1666   22.1760 H   0  0  0  0  0  0  0  0  0  0  0  0
    5.4031    1.7382   22.2768 H   0  0  0  0  0  0  0  0  0  0  0  0
    3.7765    2.0931   19.2834 H   0  0  0  0  0  0  0  0  0  0  0  0
    4.8030    1.7681   17.0296 H   0  0  0  0  0  0  0  0  0  0  0  0
    7.8551   -0.5455   18.5556 H   0  0  0  0  0  0  0  0  0  0  0  0
  1  2  1  0  0  0  0
  2  3  2  0  0  0  0
  2  6  1  0  0  0  0
  3  4  1  0  0  0  0
  3 23  1  0  0  0  0
  4  5  2  0  0  0  0
  4 24  1  0  0  0  0
  5  7  1  0  0  0  0
  5 25  1  0  0  0  0
  6  7  2  0  0  0  0
  6 26  1  0  0  0  0
  7  8  1  0  0  0  0
  8  9  2  0  0  0  0
  8 13  1  0  0  0  0
  9 10  1  0  0  0  0
  9 11  1  0  0  0  0
 11 12  1  0  0  0  0
 12 27  1  0  0  0  0
 12 28  1  0  0  0  0
 12 29  1  0  0  0  0
 13 14  2  0  0  0  0
 13 15  1  0  0  0  0
 15 16  1  0  0  0  0
 15 30  1  0  0  0  0
 16 17  2  0  0  0  0
 16 22  1  0  0  0  0
 17 18  1  0  0  0  0
 17 19  1  0  0  0  0
 18 31  1  0  0  0  0
 18 32  1  0  0  0  0
 18 33  1  0  0  0  0
 19 20  2  0  0  0  0
 19 34  1  0  0  0  0
 20 21  1  0  0  0  0
 20 35  1  0  0  0  0
 21 22  2  0  0  0  0
 22 36  1  0  0  0  0
M  CHG  1  10  -1
M  END
$$$$
