Mpro-x11318_ligand
 OpenBabel04052409413D

 34 35  0  0  0  0  0  0  0  0999 V2000
   14.2067   -2.0607   20.5300 N   0  0  0  0  0  0  0  0  0  0  0  0
   13.4949   -1.5738   21.2954 C   0  0  0  0  0  0  0  0  0  0  0  0
   12.5939   -0.9626   22.2481 C   0  0  0  0  0  0  0  0  0  0  0  0
   13.0763   -0.0943   23.2459 C   0  0  0  0  0  0  0  0  0  0  0  0
   12.1835    0.4695   24.1769 C   0  0  0  0  0  0  0  0  0  0  0  0
   10.8050    0.2139   24.0726 C   0  0  0  0  0  0  0  0  0  0  0  0
   11.2199   -1.2351   22.1616 C   0  0  0  0  0  0  0  0  0  0  0  0
   10.3189   -0.6136   23.0432 C   0  0  0  0  0  0  0  0  0  0  0  0
    8.8335   -0.8183   22.8423 C   0  0  0  0  0  0  0  0  0  0  0  0
    8.3258   -0.0442   21.6171 C   0  0  0  0  0  0  0  0  0  0  0  0
    8.9297    0.9397   21.1827 O   0  0  0  0  0  0  0  0  0  0  0  0
    7.1943   -0.5090   21.0717 N   0  0  0  0  0  0  0  0  0  0  0  0
    6.5149    0.1162   20.0062 C   0  0  0  0  0  0  0  0  0  0  0  0
    5.3472    0.8784   20.2377 C   0  0  0  0  0  0  0  0  0  0  0  0
    4.8036    1.0364   21.6511 C   0  0  0  0  0  0  0  0  0  0  0  0
    6.9870   -0.0271   18.6873 C   0  0  0  0  0  0  0  0  0  0  0  0
    6.3739    0.5266   17.6240 N   0  0  0  0  0  0  0  0  0  0  0  0
    5.2762    1.2733   17.8444 C   0  0  0  0  0  0  0  0  0  0  0  0
    4.7348    1.4990   19.1240 C   0  0  0  0  0  0  0  0  0  0  0  0
    3.6354    2.3450   19.2517 N   0  0  0  0  0  0  0  0  0  0  0  0
   14.1285    0.1281   23.3109 H   0  0  0  0  0  0  0  0  0  0  0  0
   12.5480    1.1186   24.9559 H   0  0  0  0  0  0  0  0  0  0  0  0
   10.1219    0.6683   24.7734 H   0  0  0  0  0  0  0  0  0  0  0  0
   10.8371   -1.9010   21.4050 H   0  0  0  0  0  0  0  0  0  0  0  0
    8.2794   -0.5027   23.7268 H   0  0  0  0  0  0  0  0  0  0  0  0
    8.6544   -1.8848   22.7090 H   0  0  0  0  0  0  0  0  0  0  0  0
    6.7282   -1.2825   21.5279 H   0  0  0  0  0  0  0  0  0  0  0  0
    3.8137    1.4895   21.6750 H   0  0  0  0  0  0  0  0  0  0  0  0
    4.7237    0.0644   22.1383 H   0  0  0  0  0  0  0  0  0  0  0  0
    5.4770    1.6579   22.2413 H   0  0  0  0  0  0  0  0  0  0  0  0
    7.8793   -0.5979   18.4771 H   0  0  0  0  0  0  0  0  0  0  0  0
    4.8431    1.7385   16.9731 H   0  0  0  0  0  0  0  0  0  0  0  0
    3.4595    2.9759   18.4797 H   0  0  0  0  0  0  0  0  0  0  0  0
    3.4974    2.7860   20.1506 H   0  0  0  0  0  0  0  0  0  0  0  0
  1  2  3  0  0  0  0
  2  3  1  0  0  0  0
  3  4  2  0  0  0  0
  3  7  1  0  0  0  0
  4  5  1  0  0  0  0
  4 21  1  0  0  0  0
  5  6  2  0  0  0  0
  5 22  1  0  0  0  0
  6  8  1  0  0  0  0
  6 23  1  0  0  0  0
  7  8  2  0  0  0  0
  7 24  1  0  0  0  0
  8  9  1  0  0  0  0
  9 10  1  0  0  0  0
  9 25  1  0  0  0  0
  9 26  1  0  0  0  0
 10 11  2  0  0  0  0
 10 12  1  0  0  0  0
 12 13  1  0  0  0  0
 12 27  1  0  0  0  0
 13 14  2  0  0  0  0
 13 16  1  0  0  0  0
 14 15  1  0  0  0  0
 14 19  1  0  0  0  0
 15 28  1  0  0  0  0
 15 29  1  0  0  0  0
 15 30  1  0  0  0  0
 16 17  2  0  0  0  0
 16 31  1  0  0  0  0
 17 18  1  0  0  0  0
 18 19  2  0  0  0  0
 18 32  1  0  0  0  0
 19 20  1  0  0  0  0
 20 33  1  0  0  0  0
 20 34  1  0  0  0  0
M  END
$$$$
