Mpro-x12000_ligand
 OpenBabel04052409413D

 35 37  0  0  0  0  0  0  0  0999 V2000
    8.8990    0.8750   21.0410 O   0  0  0  0  0  0  0  0  0  0  0  0
    8.3464   -0.1570   21.4278 C   0  0  0  0  0  0  0  0  0  0  0  0
    8.8890   -0.9514   22.6220 C   0  0  0  0  0  0  0  0  0  0  0  0
   10.3675   -0.6800   22.8085 C   0  0  0  0  0  0  0  0  0  0  0  0
   10.8099    0.3521   23.6610 C   0  0  0  0  0  0  0  0  0  0  0  0
   12.1814    0.6598   23.7337 C   0  0  0  0  0  0  0  0  0  0  0  0
   13.1078   -0.0562   22.9508 C   0  0  0  0  0  0  0  0  0  0  0  0
   11.3003   -1.4226   22.0639 C   0  0  0  0  0  0  0  0  0  0  0  0
   12.6640   -1.0969   22.1132 C   0  0  0  0  0  0  0  0  0  0  0  0
   13.7713   -1.9646   21.1216 Cl  0  0  0  0  0  0  0  0  0  0  0  0
    7.2457   -0.6522   20.8505 N   0  0  0  0  0  0  0  0  0  0  0  0
    6.5329    0.0101   19.8364 C   0  0  0  0  0  0  0  0  0  0  0  0
    5.4058    0.7923   20.1357 C   0  0  0  0  0  0  0  0  0  0  0  0
    4.8031    1.0845   21.4813 C   0  0  0  0  0  0  0  0  0  0  0  0
    3.5360    1.9047   21.1400 C   0  0  0  0  0  0  0  0  0  0  0  0
    3.6130    2.2913   19.6443 C   0  0  0  0  0  0  0  0  0  0  0  0
    4.7361    1.4488   19.1185 C   0  0  0  0  0  0  0  0  0  0  0  0
    5.1667    1.3031   17.7903 C   0  0  0  0  0  0  0  0  0  0  0  0
    6.2374    0.5384   17.4786 N   0  0  0  0  0  0  0  0  0  0  0  0
    6.9067   -0.0854   18.4787 C   0  0  0  0  0  0  0  0  0  0  0  0
    8.7341   -2.0198   22.4645 H   0  0  0  0  0  0  0  0  0  0  0  0
    8.3416   -0.6784   23.5229 H   0  0  0  0  0  0  0  0  0  0  0  0
   10.0982    0.9320   24.2291 H   0  0  0  0  0  0  0  0  0  0  0  0
   12.5168    1.4642   24.3688 H   0  0  0  0  0  0  0  0  0  0  0  0
   14.1553    0.1985   22.9866 H   0  0  0  0  0  0  0  0  0  0  0  0
   10.9596   -2.2226   21.4265 H   0  0  0  0  0  0  0  0  0  0  0  0
    6.8108   -1.4678   21.2667 H   0  0  0  0  0  0  0  0  0  0  0  0
    5.5065    1.6679   22.0754 H   0  0  0  0  0  0  0  0  0  0  0  0
    4.5663    0.1656   22.0181 H   0  0  0  0  0  0  0  0  0  0  0  0
    3.4068    2.7718   21.7875 H   0  0  0  0  0  0  0  0  0  0  0  0
    2.6653    1.2667   21.2846 H   0  0  0  0  0  0  0  0  0  0  0  0
    3.8727    3.3412   19.5244 H   0  0  0  0  0  0  0  0  0  0  0  0
    2.6813    2.1052   19.1170 H   0  0  0  0  0  0  0  0  0  0  0  0
    4.6807    1.8186   16.9785 H   0  0  0  0  0  0  0  0  0  0  0  0
    7.7686   -0.6672   18.1869 H   0  0  0  0  0  0  0  0  0  0  0  0
  1  2  2  0  0  0  0
  2  3  1  0  0  0  0
  2 11  1  0  0  0  0
  3  4  1  0  0  0  0
  3 21  1  0  0  0  0
  3 22  1  0  0  0  0
  4  5  2  0  0  0  0
  4  8  1  0  0  0  0
  5  6  1  0  0  0  0
  5 23  1  0  0  0  0
  6  7  2  0  0  0  0
  6 24  1  0  0  0  0
  7  9  1  0  0  0  0
  7 25  1  0  0  0  0
  8  9  2  0  0  0  0
  8 26  1  0  0  0  0
  9 10  1  0  0  0  0
 11 12  1  0  0  0  0
 11 27  1  0  0  0  0
 12 13  2  0  0  0  0
 12 20  1  0  0  0  0
 13 14  1  0  0  0  0
 13 17  1  0  0  0  0
 14 15  1  0  0  0  0
 14 28  1  0  0  0  0
 14 29  1  0  0  0  0
 15 16  1  0  0  0  0
 15 30  1  0  0  0  0
 15 31  1  0  0  0  0
 16 17  1  0  0  0  0
 16 32  1  0  0  0  0
 16 33  1  0  0  0  0
 17 18  2  0  0  0  0
 18 19  1  0  0  0  0
 18 34  1  0  0  0  0
 19 20  2  0  0  0  0
 20 35  1  0  0  0  0
M  END
$$$$
