Mpro-x12177_ligand
 OpenBabel04052409413D

 48 51  0  0  0  0  0  0  0  0999 V2000
    9.0517    1.4523   21.1223 O   0  0  0  0  0  0  0  0  0  0  0  0
    8.8229    0.4166   21.7515 C   0  0  0  0  0  0  0  0  0  0  0  0
    8.0808   -0.7325   21.0382 C   0  0  0  0  0  0  0  0  0  0  0  0
    7.1713   -0.2035   20.0414 N   0  0  0  0  0  0  0  0  0  0  0  0
    6.0027    0.5009   20.2442 C   0  0  0  0  0  0  0  0  0  0  0  0
    5.2372    0.8906   21.3562 C   0  0  0  0  0  0  0  0  0  0  0  0
    4.1064    1.7018   21.1437 C   0  0  0  0  0  0  0  0  0  0  0  0
    3.7766    2.1224   19.8378 C   0  0  0  0  0  0  0  0  0  0  0  0
    4.5602    1.7202   18.7369 C   0  0  0  0  0  0  0  0  0  0  0  0
    5.6749    0.8808   18.9270 C   0  0  0  0  0  0  0  0  0  0  0  0
    6.5874    0.3486   18.0365 N   0  0  0  0  0  0  0  0  0  0  0  0
    7.4797   -0.3006   18.7194 N   0  0  0  0  0  0  0  0  0  0  0  0
    9.1915    0.2735   23.0470 N   0  0  0  0  0  0  0  0  0  0  0  0
    9.0147   -0.9414   23.7525 C   0  0  0  0  0  0  0  0  0  0  0  0
    8.0789   -1.0074   24.8021 C   0  0  0  0  0  0  0  0  0  0  0  0
    7.9374   -2.1932   25.5438 C   0  0  0  0  0  0  0  0  0  0  0  0
    9.7967   -2.0712   23.4345 C   0  0  0  0  0  0  0  0  0  0  0  0
    9.6591   -3.2512   24.1859 C   0  0  0  0  0  0  0  0  0  0  0  0
    8.7287   -3.3202   25.2521 C   0  0  0  0  0  0  0  0  0  0  0  0
    8.5464   -4.4272   26.0456 O   0  0  0  0  0  0  0  0  0  0  0  0
    9.3025   -5.5846   25.7423 C   0  0  0  0  0  0  0  0  0  0  0  0
    9.7882    1.4014   23.7799 C   0  0  0  0  0  0  0  0  0  0  0  0
   11.2159    1.6807   23.3439 C   0  0  0  0  0  0  0  0  0  0  0  0
   11.5786    2.9396   22.8219 C   0  0  0  0  0  0  0  0  0  0  0  0
   12.8935    3.1582   22.3657 C   0  0  0  0  0  0  0  0  0  0  0  0
   13.3614    4.6962   21.7480 Cl  0  0  0  0  0  0  0  0  0  0  0  0
   13.8375    2.1181   22.4183 C   0  0  0  0  0  0  0  0  0  0  0  0
   13.4839    0.8678   22.9526 C   0  0  0  0  0  0  0  0  0  0  0  0
   12.1783    0.6567   23.4276 C   0  0  0  0  0  0  0  0  0  0  0  0
    7.4877   -1.3334   21.7274 H   0  0  0  0  0  0  0  0  0  0  0  0
    8.8106   -1.3914   20.5678 H   0  0  0  0  0  0  0  0  0  0  0  0
    5.5157    0.5845   22.3535 H   0  0  0  0  0  0  0  0  0  0  0  0
    3.5018    2.0165   21.9814 H   0  0  0  0  0  0  0  0  0  0  0  0
    2.9213    2.7602   19.6744 H   0  0  0  0  0  0  0  0  0  0  0  0
    4.3200    2.0645   17.7461 H   0  0  0  0  0  0  0  0  0  0  0  0
    7.4803   -0.1439   25.0518 H   0  0  0  0  0  0  0  0  0  0  0  0
    7.2286   -2.2319   26.3579 H   0  0  0  0  0  0  0  0  0  0  0  0
   10.5229   -2.0292   22.6355 H   0  0  0  0  0  0  0  0  0  0  0  0
   10.3015   -4.0817   23.9469 H   0  0  0  0  0  0  0  0  0  0  0  0
    8.9218   -6.3898   26.3618 H   0  0  0  0  0  0  0  0  0  0  0  0
    9.1866   -5.8969   24.7036 H   0  0  0  0  0  0  0  0  0  0  0  0
   10.3604   -5.4439   25.9694 H   0  0  0  0  0  0  0  0  0  0  0  0
    9.8044    1.1951   24.8515 H   0  0  0  0  0  0  0  0  0  0  0  0
    9.1757    2.2961   23.6652 H   0  0  0  0  0  0  0  0  0  0  0  0
   10.8492    3.7332   22.7592 H   0  0  0  0  0  0  0  0  0  0  0  0
   14.8424    2.2833   22.0612 H   0  0  0  0  0  0  0  0  0  0  0  0
   14.2171    0.0775   23.0011 H   0  0  0  0  0  0  0  0  0  0  0  0
   11.9026   -0.2947   23.8481 H   0  0  0  0  0  0  0  0  0  0  0  0
  1  2  2  0  0  0  0
  2  3  1  0  0  0  0
  2 13  1  0  0  0  0
  3  4  1  0  0  0  0
  3 30  1  0  0  0  0
  3 31  1  0  0  0  0
  4  5  1  0  0  0  0
  4 12  1  0  0  0  0
  5  6  2  0  0  0  0
  5 10  1  0  0  0  0
  6  7  1  0  0  0  0
  6 32  1  0  0  0  0
  7  8  2  0  0  0  0
  7 33  1  0  0  0  0
  8  9  1  0  0  0  0
  8 34  1  0  0  0  0
  9 10  2  0  0  0  0
  9 35  1  0  0  0  0
 10 11  1  0  0  0  0
 11 12  2  0  0  0  0
 13 14  1  0  0  0  0
 13 22  1  0  0  0  0
 14 15  2  0  0  0  0
 14 17  1  0  0  0  0
 15 16  1  0  0  0  0
 15 36  1  0  0  0  0
 16 19  2  0  0  0  0
 16 37  1  0  0  0  0
 17 18  2  0  0  0  0
 17 38  1  0  0  0  0
 18 19  1  0  0  0  0
 18 39  1  0  0  0  0
 19 20  1  0  0  0  0
 20 21  1  0  0  0  0
 21 40  1  0  0  0  0
 21 41  1  0  0  0  0
 21 42  1  0  0  0  0
 22 23  1  0  0  0  0
 22 43  1  0  0  0  0
 22 44  1  0  0  0  0
 23 24  2  0  0  0  0
 23 29  1  0  0  0  0
 24 25  1  0  0  0  0
 24 45  1  0  0  0  0
 25 26  1  0  0  0  0
 25 27  2  0  0  0  0
 27 28  1  0  0  0  0
 27 46  1  0  0  0  0
 28 29  2  0  0  0  0
 28 47  1  0  0  0  0
 29 48  1  0  0  0  0
M  END
$$$$
