Mpro-x11499_ligand
 OpenBabel04052409413D

 33 35  0  0  0  0  0  0  0  0999 V2000
    8.7309    0.9536   21.2178 O   0  0  0  0  0  0  0  0  0  0  0  0
    8.2985   -0.1613   21.5188 C   0  0  0  0  0  0  0  0  0  0  0  0
    8.9601   -0.9899   22.6256 C   0  0  0  0  0  0  0  0  0  0  0  0
   10.4481   -0.7087   22.7050 C   0  0  0  0  0  0  0  0  0  0  0  0
   10.9296    0.3762   23.4661 C   0  0  0  0  0  0  0  0  0  0  0  0
   12.3076    0.6579   23.5003 C   0  0  0  0  0  0  0  0  0  0  0  0
   13.2051   -0.1414   22.7676 C   0  0  0  0  0  0  0  0  0  0  0  0
   11.3523   -1.5185   21.9925 C   0  0  0  0  0  0  0  0  0  0  0  0
   12.7263   -1.2241   22.0062 C   0  0  0  0  0  0  0  0  0  0  0  0
   13.8128   -2.1882   21.0815 Cl  0  0  0  0  0  0  0  0  0  0  0  0
    7.2322   -0.7119   20.9218 N   0  0  0  0  0  0  0  0  0  0  0  0
    6.4604   -0.0445   19.9452 C   0  0  0  0  0  0  0  0  0  0  0  0
    5.3309    0.7333   20.2880 C   0  0  0  0  0  0  0  0  0  0  0  0
    4.8689    0.9023   21.6119 C   0  0  0  0  0  0  0  0  0  0  0  0
    3.7930    1.6545   21.9301 N   0  0  0  0  0  0  0  0  0  0  0  0
    3.1385    2.2844   20.9307 C   0  0  0  0  0  0  0  0  0  0  0  0
    3.5110    2.1854   19.5769 C   0  0  0  0  0  0  0  0  0  0  0  0
    4.6281    1.3928   19.2534 C   0  0  0  0  0  0  0  0  0  0  0  0
    5.0728    1.2356   17.9272 C   0  0  0  0  0  0  0  0  0  0  0  0
    6.1393    0.4785   17.5950 N   0  0  0  0  0  0  0  0  0  0  0  0
    6.8159   -0.1429   18.5854 C   0  0  0  0  0  0  0  0  0  0  0  0
    8.8011   -2.0541   22.4476 H   0  0  0  0  0  0  0  0  0  0  0  0
    8.4904   -0.7517   23.5801 H   0  0  0  0  0  0  0  0  0  0  0  0
   10.2385    1.0041   24.0062 H   0  0  0  0  0  0  0  0  0  0  0  0
   12.6711    1.4975   24.0726 H   0  0  0  0  0  0  0  0  0  0  0  0
   14.2577    0.0893   22.7761 H   0  0  0  0  0  0  0  0  0  0  0  0
   10.9894   -2.3592   21.4219 H   0  0  0  0  0  0  0  0  0  0  0  0
    6.9336   -1.6344   21.2119 H   0  0  0  0  0  0  0  0  0  0  0  0
    5.3641    0.4237   22.4437 H   0  0  0  0  0  0  0  0  0  0  0  0
    2.2857    2.8824   21.2169 H   0  0  0  0  0  0  0  0  0  0  0  0
    2.9586    2.7121   18.8120 H   0  0  0  0  0  0  0  0  0  0  0  0
    4.5717    1.7307   17.1110 H   0  0  0  0  0  0  0  0  0  0  0  0
    7.6729   -0.7274   18.2846 H   0  0  0  0  0  0  0  0  0  0  0  0
  1  2  2  0  0  0  0
  2  3  1  0  0  0  0
  2 11  1  0  0  0  0
  3  4  1  0  0  0  0
  3 22  1  0  0  0  0
  3 23  1  0  0  0  0
  4  5  2  0  0  0  0
  4  8  1  0  0  0  0
  5  6  1  0  0  0  0
  5 24  1  0  0  0  0
  6  7  2  0  0  0  0
  6 25  1  0  0  0  0
  7  9  1  0  0  0  0
  7 26  1  0  0  0  0
  8  9  2  0  0  0  0
  8 27  1  0  0  0  0
  9 10  1  0  0  0  0
 11 12  1  0  0  0  0
 11 28  1  0  0  0  0
 12 13  2  0  0  0  0
 12 21  1  0  0  0  0
 13 14  1  0  0  0  0
 13 18  1  0  0  0  0
 14 15  2  0  0  0  0
 14 29  1  0  0  0  0
 15 16  1  0  0  0  0
 16 17  2  0  0  0  0
 16 30  1  0  0  0  0
 17 18  1  0  0  0  0
 17 31  1  0  0  0  0
 18 19  2  0  0  0  0
 19 20  1  0  0  0  0
 19 32  1  0  0  0  0
 20 21  2  0  0  0  0
 21 33  1  0  0  0  0
M  END
$$$$
