Mpro-x11317_ligand
 OpenBabel04052409413D

 33 34  0  0  0  0  0  0  0  0999 V2000
   13.7228   -1.9758   21.1708 Cl  0  0  0  0  0  0  0  0  0  0  0  0
   12.5880   -1.1848   22.1929 C   0  0  0  0  0  0  0  0  0  0  0  0
   12.9991   -0.1581   23.0641 C   0  0  0  0  0  0  0  0  0  0  0  0
   12.0518    0.5012   23.8701 C   0  0  0  0  0  0  0  0  0  0  0  0
   10.6879    0.1702   23.7619 C   0  0  0  0  0  0  0  0  0  0  0  0
   11.2292   -1.5307   22.1055 C   0  0  0  0  0  0  0  0  0  0  0  0
   10.2710   -0.8239   22.8535 C   0  0  0  0  0  0  0  0  0  0  0  0
    8.7970   -1.0871   22.6168 C   0  0  0  0  0  0  0  0  0  0  0  0
    8.2663   -0.2309   21.4578 C   0  0  0  0  0  0  0  0  0  0  0  0
    8.8368    0.8060   21.1134 O   0  0  0  0  0  0  0  0  0  0  0  0
    7.1570   -0.6780   20.8559 N   0  0  0  0  0  0  0  0  0  0  0  0
    6.4751    0.0239   19.8406 C   0  0  0  0  0  0  0  0  0  0  0  0
    5.3761    0.8625   20.1385 C   0  0  0  0  0  0  0  0  0  0  0  0
    4.8843    1.0047   21.5716 C   0  0  0  0  0  0  0  0  0  0  0  0
    6.8829   -0.1150   18.5018 C   0  0  0  0  0  0  0  0  0  0  0  0
    6.2861    0.5280   17.4805 N   0  0  0  0  0  0  0  0  0  0  0  0
    5.2598    1.3501   17.7644 C   0  0  0  0  0  0  0  0  0  0  0  0
    4.7742    1.5681   19.0684 C   0  0  0  0  0  0  0  0  0  0  0  0
    3.7437    2.4869   19.2626 N   0  0  0  0  0  0  0  0  0  0  0  0
   14.0372    0.1233   23.1127 H   0  0  0  0  0  0  0  0  0  0  0  0
   12.3628    1.2842   24.5435 H   0  0  0  0  0  0  0  0  0  0  0  0
    9.9557    0.7079   24.3434 H   0  0  0  0  0  0  0  0  0  0  0  0
   10.9142   -2.3015   21.4208 H   0  0  0  0  0  0  0  0  0  0  0  0
    8.2288   -0.8672   23.5199 H   0  0  0  0  0  0  0  0  0  0  0  0
    8.6490   -2.1454   22.3959 H   0  0  0  0  0  0  0  0  0  0  0  0
    6.7244   -1.5254   21.2062 H   0  0  0  0  0  0  0  0  0  0  0  0
    3.8805    1.4238   21.6230 H   0  0  0  0  0  0  0  0  0  0  0  0
    4.8485    0.0340   22.0673 H   0  0  0  0  0  0  0  0  0  0  0  0
    5.5586    1.6486   22.1363 H   0  0  0  0  0  0  0  0  0  0  0  0
    7.7167   -0.7490   18.2398 H   0  0  0  0  0  0  0  0  0  0  0  0
    4.8386    1.8793   16.9243 H   0  0  0  0  0  0  0  0  0  0  0  0
    3.6020    3.1525   18.5117 H   0  0  0  0  0  0  0  0  0  0  0  0
    3.7290    2.9398   20.1667 H   0  0  0  0  0  0  0  0  0  0  0  0
  1  2  1  0  0  0  0
  2  3  2  0  0  0  0
  2  6  1  0  0  0  0
  3  4  1  0  0  0  0
  3 20  1  0  0  0  0
  4  5  2  0  0  0  0
  4 21  1  0  0  0  0
  5  7  1  0  0  0  0
  5 22  1  0  0  0  0
  6  7  2  0  0  0  0
  6 23  1  0  0  0  0
  7  8  1  0  0  0  0
  8  9  1  0  0  0  0
  8 24  1  0  0  0  0
  8 25  1  0  0  0  0
  9 10  2  0  0  0  0
  9 11  1  0  0  0  0
 11 12  1  0  0  0  0
 11 26  1  0  0  0  0
 12 13  2  0  0  0  0
 12 15  1  0  0  0  0
 13 14  1  0  0  0  0
 13 18  1  0  0  0  0
 14 27  1  0  0  0  0
 14 28  1  0  0  0  0
 14 29  1  0  0  0  0
 15 16  2  0  0  0  0
 15 30  1  0  0  0  0
 16 17  1  0  0  0  0
 17 18  2  0  0  0  0
 17 31  1  0  0  0  0
 18 19  1  0  0  0  0
 19 32  1  0  0  0  0
 19 33  1  0  0  0  0
M  END
$$$$
