Mpro-x12686_ligand
 OpenBabel04052409413D

 41 45  0  0  1  0  0  0  0  0999 V2000
    8.9147    1.4360   21.3298 O   0  0  0  0  0  0  0  0  0  0  0  0
    8.5637    0.3303   21.7490 C   0  0  0  0  0  0  0  0  0  0  0  0
    9.1404   -0.3597   22.9769 C   0  0  2  0  0  0  0  0  0  0  0  0
    8.6185    0.2707   24.2809 C   0  0  0  0  0  0  0  0  0  0  0  0
    9.3010    1.6147   24.5537 C   0  0  0  0  0  0  0  0  0  0  0  0
   10.7130    1.4818   24.6265 O   0  0  0  0  0  0  0  0  0  0  0  0
   10.6589   -0.2860   22.9057 C   0  0  0  0  0  0  0  0  0  0  0  0
   11.3346    0.6793   23.6944 C   0  0  0  0  0  0  0  0  0  0  0  0
   12.7203    0.8341   23.5496 C   0  0  0  0  0  0  0  0  0  0  0  0
   13.4496    0.0327   22.6584 C   0  0  0  0  0  0  0  0  0  0  0  0
   11.3981   -1.1147   22.0290 C   0  0  0  0  0  0  0  0  0  0  0  0
   12.7923   -0.9558   21.9076 C   0  0  0  0  0  0  0  0  0  0  0  0
   13.7045   -1.9647   20.8508 Cl  0  0  0  0  0  0  0  0  0  0  0  0
    7.6704   -0.4885   21.1918 N   0  0  0  0  0  0  0  0  0  0  0  0
    7.6328   -1.6841   21.8020 C   0  0  0  0  0  0  0  0  0  0  0  0
    6.8989   -2.6298   21.5205 O   0  0  0  0  0  0  0  0  0  0  0  0
    8.5492   -1.6743   22.7807 N   0  0  0  0  0  0  0  0  0  0  0  0
    6.8110   -0.0576   20.1556 C   0  0  0  0  0  0  0  0  0  0  0  0
    5.5970    0.6249   20.4202 C   0  0  0  0  0  0  0  0  0  0  0  0
    5.0796    0.7808   21.7262 C   0  0  0  0  0  0  0  0  0  0  0  0
    3.8916    1.5049   21.9347 C   0  0  0  0  0  0  0  0  0  0  0  0
    3.2201    2.0926   20.8459 C   0  0  0  0  0  0  0  0  0  0  0  0
    3.7260    1.9453   19.5419 C   0  0  0  0  0  0  0  0  0  0  0  0
    4.9010    1.1986   19.3302 C   0  0  0  0  0  0  0  0  0  0  0  0
    5.4212    1.0255   18.0363 C   0  0  0  0  0  0  0  0  0  0  0  0
    6.5565    0.3471   17.7897 N   0  0  0  0  0  0  0  0  0  0  0  0
    7.2411   -0.1722   18.8222 C   0  0  0  0  0  0  0  0  0  0  0  0
    8.8222   -0.3998   25.1169 H   0  0  0  0  0  0  0  0  0  0  0  0
    7.5357    0.3987   24.2488 H   0  0  0  0  0  0  0  0  0  0  0  0
    8.9485    2.0229   25.5009 H   0  0  0  0  0  0  0  0  0  0  0  0
    9.0525    2.3517   23.7917 H   0  0  0  0  0  0  0  0  0  0  0  0
   13.2143    1.5954   24.1213 H   0  0  0  0  0  0  0  0  0  0  0  0
   14.5121    0.1777   22.5584 H   0  0  0  0  0  0  0  0  0  0  0  0
   10.8931   -1.8634   21.4386 H   0  0  0  0  0  0  0  0  0  0  0  0
    8.7266   -2.4512   23.4009 H   0  0  0  0  0  0  0  0  0  0  0  0
    5.5823    0.3487   22.5782 H   0  0  0  0  0  0  0  0  0  0  0  0
    3.4976    1.6173   22.9347 H   0  0  0  0  0  0  0  0  0  0  0  0
    2.3179    2.6607   21.0122 H   0  0  0  0  0  0  0  0  0  0  0  0
    3.2140    2.4083   18.7106 H   0  0  0  0  0  0  0  0  0  0  0  0
    4.9343    1.4555   17.1756 H   0  0  0  0  0  0  0  0  0  0  0  0
    8.1790   -0.6495   18.5782 H   0  0  0  0  0  0  0  0  0  0  0  0
  1  2  2  0  0  0  0
  2 14  1  0  0  0  0
  3  2  1  6  0  0  0
  3  4  1  0  0  0  0
  3  7  1  0  0  0  0
  3 17  1  0  0  0  0
  4  5  1  0  0  0  0
  4 28  1  0  0  0  0
  4 29  1  0  0  0  0
  5  6  1  0  0  0  0
  5 30  1  0  0  0  0
  5 31  1  0  0  0  0
  6  8  1  0  0  0  0
  7  8  2  0  0  0  0
  7 11  1  0  0  0  0
  8  9  1  0  0  0  0
  9 10  2  0  0  0  0
  9 32  1  0  0  0  0
 10 12  1  0  0  0  0
 10 33  1  0  0  0  0
 11 12  2  0  0  0  0
 11 34  1  0  0  0  0
 12 13  1  0  0  0  0
 14 15  1  0  0  0  0
 14 18  1  0  0  0  0
 15 16  2  0  0  0  0
 15 17  1  0  0  0  0
 17 35  1  0  0  0  0
 18 19  2  0  0  0  0
 18 27  1  0  0  0  0
 19 20  1  0  0  0  0
 19 24  1  0  0  0  0
 20 21  2  0  0  0  0
 20 36  1  0  0  0  0
 21 22  1  0  0  0  0
 21 37  1  0  0  0  0
 22 23  2  0  0  0  0
 22 38  1  0  0  0  0
 23 24  1  0  0  0  0
 23 39  1  0  0  0  0
 24 25  2  0  0  0  0
 25 26  1  0  0  0  0
 25 40  1  0  0  0  0
 26 27  2  0  0  0  0
 27 41  1  0  0  0  0
M  END
$$$$
