Mpro-x11810_ligand
 OpenBabel04052409413D

 33 35  0  0  0  0  0  0  0  0999 V2000
    8.7437    0.7496   20.9883 O   0  0  0  0  0  0  0  0  0  0  0  0
    8.1983   -0.2845   21.3831 C   0  0  0  0  0  0  0  0  0  0  0  0
    8.7507   -1.0629   22.5832 C   0  0  0  0  0  0  0  0  0  0  0  0
   10.2260   -0.7734   22.7657 C   0  0  0  0  0  0  0  0  0  0  0  0
   10.5579    0.2627   23.5698 N   0  0  0  0  0  0  0  0  0  0  0  0
   11.8594    0.6164   23.6347 C   0  0  0  0  0  0  0  0  0  0  0  0
   12.8760   -0.0433   22.9151 C   0  0  0  0  0  0  0  0  0  0  0  0
   11.1712   -1.5198   22.0416 C   0  0  0  0  0  0  0  0  0  0  0  0
   12.5172   -1.1348   22.1029 C   0  0  0  0  0  0  0  0  0  0  0  0
   13.6872   -1.9816   21.1705 Cl  0  0  0  0  0  0  0  0  0  0  0  0
    7.1003   -0.7873   20.8049 N   0  0  0  0  0  0  0  0  0  0  0  0
    6.3876   -0.1033   19.7967 C   0  0  0  0  0  0  0  0  0  0  0  0
    5.2599    0.6912   20.0995 C   0  0  0  0  0  0  0  0  0  0  0  0
    4.7483    0.8066   21.4106 C   0  0  0  0  0  0  0  0  0  0  0  0
    3.6339    1.6264   21.6602 C   0  0  0  0  0  0  0  0  0  0  0  0
    3.0326    2.3461   20.6105 C   0  0  0  0  0  0  0  0  0  0  0  0
    3.5400    2.2435   19.3028 C   0  0  0  0  0  0  0  0  0  0  0  0
    4.6412    1.4048   19.0459 C   0  0  0  0  0  0  0  0  0  0  0  0
    5.1533    1.2582   17.7439 C   0  0  0  0  0  0  0  0  0  0  0  0
    6.2121    0.4788   17.4507 N   0  0  0  0  0  0  0  0  0  0  0  0
    6.8185   -0.1794   18.4590 C   0  0  0  0  0  0  0  0  0  0  0  0
    8.6079   -2.1341   22.4312 H   0  0  0  0  0  0  0  0  0  0  0  0
    8.1975   -0.7894   23.4815 H   0  0  0  0  0  0  0  0  0  0  0  0
   12.0949    1.4568   24.2680 H   0  0  0  0  0  0  0  0  0  0  0  0
   13.9013    0.2824   22.9794 H   0  0  0  0  0  0  0  0  0  0  0  0
   10.8608   -2.3415   21.4175 H   0  0  0  0  0  0  0  0  0  0  0  0
    6.6861   -1.6280   21.1893 H   0  0  0  0  0  0  0  0  0  0  0  0
    5.1992    0.2705   22.2324 H   0  0  0  0  0  0  0  0  0  0  0  0
    3.2417    1.7025   22.6619 H   0  0  0  0  0  0  0  0  0  0  0  0
    2.1809    2.9796   20.8089 H   0  0  0  0  0  0  0  0  0  0  0  0
    3.0802    2.8032   18.5013 H   0  0  0  0  0  0  0  0  0  0  0  0
    4.7232    1.7981   16.9152 H   0  0  0  0  0  0  0  0  0  0  0  0
    7.6830   -0.7699   18.1920 H   0  0  0  0  0  0  0  0  0  0  0  0
  1  2  2  0  0  0  0
  2  3  1  0  0  0  0
  2 11  1  0  0  0  0
  3  4  1  0  0  0  0
  3 22  1  0  0  0  0
  3 23  1  0  0  0  0
  4  5  2  0  0  0  0
  4  8  1  0  0  0  0
  5  6  1  0  0  0  0
  6  7  2  0  0  0  0
  6 24  1  0  0  0  0
  7  9  1  0  0  0  0
  7 25  1  0  0  0  0
  8  9  2  0  0  0  0
  8 26  1  0  0  0  0
  9 10  1  0  0  0  0
 11 12  1  0  0  0  0
 11 27  1  0  0  0  0
 12 13  2  0  0  0  0
 12 21  1  0  0  0  0
 13 14  1  0  0  0  0
 13 18  1  0  0  0  0
 14 15  2  0  0  0  0
 14 28  1  0  0  0  0
 15 16  1  0  0  0  0
 15 29  1  0  0  0  0
 16 17  2  0  0  0  0
 16 30  1  0  0  0  0
 17 18  1  0  0  0  0
 17 31  1  0  0  0  0
 18 19  2  0  0  0  0
 19 20  1  0  0  0  0
 19 32  1  0  0  0  0
 20 21  2  0  0  0  0
 21 33  1  0  0  0  0
M  END
$$$$
