Mpro-x0689_ligand
 OpenBabel04052409413D

 31 32  0  0  0  0  0  0  0  0999 V2000
    6.5083   -5.1547   21.7829 N   0  0  0  0  0  0  0  0  0  0  0  0
    6.9161   -3.0131   20.6180 C   0  0  0  0  0  0  0  0  0  0  0  0
    5.7373   -4.8335   19.6787 O   0  0  0  0  0  0  0  0  0  0  0  0
    6.3534   -4.4253   20.6599 C   0  0  0  0  0  0  0  0  0  0  0  0
    7.3211   -4.7737   22.9339 C   0  0  0  0  0  0  0  0  0  0  0  0
    6.3773   -4.2644   24.0278 C   0  0  0  0  0  0  0  0  0  0  0  0
    4.6717   -5.9015   23.2043 C   0  0  0  0  0  0  0  0  0  0  0  0
    5.6732   -6.3067   22.1037 C   0  0  0  0  0  0  0  0  0  0  0  0
    3.4313   -3.8755   25.7359 C   0  0  0  0  0  0  0  0  0  0  0  0
    2.1154   -3.9657   25.3651 C   0  0  0  0  0  0  0  0  0  0  0  0
    1.4438   -2.7087   25.4219 C   0  0  0  0  0  0  0  0  0  0  0  0
    2.2632   -1.6853   25.8238 C   0  0  0  0  0  0  0  0  0  0  0  0
    5.3713   -5.2923   24.3576 N   0  0  0  0  0  0  0  0  0  0  0  0
    3.7972   -6.4409   26.0770 O   0  0  0  0  0  0  0  0  0  0  0  0
    5.5825   -4.8058   26.9007 O   0  0  0  0  0  0  0  0  0  0  0  0
    4.5883   -5.2143   25.8965 S   0  0  0  0  0  0  0  0  0  0  0  0
    3.8892   -2.2384   26.1209 S   0  0  0  0  0  0  0  0  0  0  0  0
    6.7384   -2.5744   19.6398 H   0  0  0  0  0  0  0  0  0  0  0  0
    6.4122   -2.3904   21.3525 H   0  0  0  0  0  0  0  0  0  0  0  0
    7.9895   -3.0007   20.7933 H   0  0  0  0  0  0  0  0  0  0  0  0
    8.0812   -4.0269   22.7125 H   0  0  0  0  0  0  0  0  0  0  0  0
    7.8729   -5.6448   23.2895 H   0  0  0  0  0  0  0  0  0  0  0  0
    5.8675   -3.3551   23.7075 H   0  0  0  0  0  0  0  0  0  0  0  0
    6.9525   -4.0078   24.9130 H   0  0  0  0  0  0  0  0  0  0  0  0
    4.1154   -6.7796   23.5294 H   0  0  0  0  0  0  0  0  0  0  0  0
    3.9441   -5.1876   22.8155 H   0  0  0  0  0  0  0  0  0  0  0  0
    6.3009   -7.1300   22.4465 H   0  0  0  0  0  0  0  0  0  0  0  0
    5.1364   -6.6784   21.2340 H   0  0  0  0  0  0  0  0  0  0  0  0
    1.6152   -4.8794   25.0791 H   0  0  0  0  0  0  0  0  0  0  0  0
    0.3985   -2.6005   25.1729 H   0  0  0  0  0  0  0  0  0  0  0  0
    2.0187   -0.6410   25.9488 H   0  0  0  0  0  0  0  0  0  0  0  0
  1  4  1  0  0  0  0
  1  5  1  0  0  0  0
  1  8  1  0  0  0  0
  2  4  1  0  0  0  0
  2 18  1  0  0  0  0
  2 19  1  0  0  0  0
  2 20  1  0  0  0  0
  3  4  2  0  0  0  0
  5  6  1  0  0  0  0
  5 21  1  0  0  0  0
  5 22  1  0  0  0  0
  6 13  1  0  0  0  0
  6 23  1  0  0  0  0
  6 24  1  0  0  0  0
  7  8  1  0  0  0  0
  7 13  1  0  0  0  0
  7 25  1  0  0  0  0
  7 26  1  0  0  0  0
  8 27  1  0  0  0  0
  8 28  1  0  0  0  0
  9 10  2  0  0  0  0
  9 16  1  0  0  0  0
  9 17  1  0  0  0  0
 10 11  1  0  0  0  0
 10 29  1  0  0  0  0
 11 12  2  0  0  0  0
 11 30  1  0  0  0  0
 12 17  1  0  0  0  0
 12 31  1  0  0  0  0
 13 16  1  0  0  0  0
 14 16  2  0  0  0  0
 15 16  2  0  0  0  0
M  END
$$$$
