Mpro-x11642_ligand
 OpenBabel04052409413D

 49 52  0  0  0  0  0  0  0  0999 V2000
    8.4898    0.9734   20.9689 O   0  0  0  0  0  0  0  0  0  0  0  0
    8.3402   -0.2059   21.3018 C   0  0  0  0  0  0  0  0  0  0  0  0
    7.1303   -1.0084   20.8270 C   0  0  0  0  0  0  0  0  0  0  0  0
    6.3386   -0.2190   19.8005 C   0  0  0  0  0  0  0  0  0  0  0  0
    5.3005    0.6789   20.1605 C   0  0  0  0  0  3  0  0  0  0  0  0
    4.8831    0.8574   21.4993 C   0  0  0  0  0  0  0  0  0  0  0  0
    3.8374    1.7469   21.8030 C   0  0  0  0  0  0  0  0  0  0  0  0
    3.2044    2.4732   20.7789 C   0  0  0  0  0  0  0  0  0  0  0  0
    3.6270    2.3282   19.4455 C   0  0  0  0  0  0  0  0  0  0  0  0
    4.6696    1.4338   19.1368 C   0  0  0  0  0  0  0  0  0  0  0  0
    5.0938    1.2821   17.8039 C   0  0  0  0  0  0  0  0  0  0  0  0
    6.0761    0.4119   17.5107 N   0  0  0  0  0  0  0  0  0  0  0  0
    6.7000   -0.3310   18.4429 C   0  0  0  0  0  0  0  0  0  0  0  0
    9.2137   -0.8826   22.0564 N   0  0  0  0  0  0  0  0  0  0  0  0
   10.4069   -0.3665   22.6004 C   0  0  0  0  0  0  0  0  0  0  0  0
   11.5278   -1.2093   22.6193 C   0  0  0  0  0  0  0  0  0  0  0  0
   12.7408   -0.7423   23.1426 C   0  0  0  0  0  0  0  0  0  0  0  0
   14.1008   -1.7826   23.0973 Cl  0  0  0  0  0  0  0  0  0  0  0  0
   12.8350    0.5567   23.6774 C   0  0  0  0  0  0  0  0  0  0  0  0
   10.4929    0.9369   23.1419 C   0  0  0  0  0  0  0  0  0  0  0  0
   11.7076    1.4056   23.6730 C   0  0  0  0  0  0  0  0  0  0  0  0
   11.7568    2.6691   24.2039 O   0  0  0  0  0  0  0  0  0  0  0  0
   12.3715    3.6909   23.5138 C   0  0  0  0  0  0  0  0  0  0  0  0
   13.0098    3.5284   22.2640 C   0  0  0  0  0  0  0  0  0  0  0  0
   13.6960    4.6212   21.7080 C   0  0  0  0  0  0  0  0  0  0  0  0
   13.7117    5.8406   22.4084 C   0  0  0  0  0  0  0  0  0  0  0  0
   12.3599    4.8705   24.1690 N   0  0  0  0  0  0  0  0  0  0  0  0
   13.0268    5.9219   23.6350 C   0  0  0  0  0  0  0  0  0  0  0  0
   13.0294    7.1197   24.3197 O   0  0  0  0  0  0  0  0  0  0  0  0
   12.4559    7.1530   25.6208 C   0  0  0  0  0  0  0  0  0  0  0  0
    6.5191   -1.3096   21.6750 H   0  0  0  0  0  0  0  0  0  0  0  0
    7.4755   -1.9364   20.3811 H   0  0  0  0  0  0  0  0  0  0  0  0
    5.3403    0.3237   22.3176 H   0  0  0  0  0  0  0  0  0  0  0  0
    3.5178    1.8635   22.8264 H   0  0  0  0  0  0  0  0  0  0  0  0
    2.3969    3.1491   21.0190 H   0  0  0  0  0  0  0  0  0  0  0  0
    3.1484    2.9032   18.6655 H   0  0  0  0  0  0  0  0  0  0  0  0
    4.6933    1.8390   16.9713 H   0  0  0  0  0  0  0  0  0  0  0  0
    6.3794    0.3128   16.5391 H   0  0  0  0  0  0  0  0  0  0  0  0
    7.4926   -0.9674   18.0793 H   0  0  0  0  0  0  0  0  0  0  0  0
    9.0611   -1.8757   22.1630 H   0  0  0  0  0  0  0  0  0  0  0  0
   11.4669   -2.2083   22.2116 H   0  0  0  0  0  0  0  0  0  0  0  0
   13.7711    0.9040   24.0771 H   0  0  0  0  0  0  0  0  0  0  0  0
    9.6311    1.5874   23.1631 H   0  0  0  0  0  0  0  0  0  0  0  0
   12.9967    2.5841   21.7476 H   0  0  0  0  0  0  0  0  0  0  0  0
   14.2191    4.5212   20.7707 H   0  0  0  0  0  0  0  0  0  0  0  0
   14.2355    6.6985   22.0135 H   0  0  0  0  0  0  0  0  0  0  0  0
   12.5681    8.1524   26.0385 H   0  0  0  0  0  0  0  0  0  0  0  0
   11.3899    6.9234   25.5963 H   0  0  0  0  0  0  0  0  0  0  0  0
   12.9584    6.4558   26.2926 H   0  0  0  0  0  0  0  0  0  0  0  0
  1  2  2  0  0  0  0
  2  3  1  0  0  0  0
  2 14  1  0  0  0  0
  3  4  1  0  0  0  0
  3 31  1  0  0  0  0
  3 32  1  0  0  0  0
  4  5  1  0  0  0  0
  4 13  2  0  0  0  0
  5  6  1  0  0  0  0
  5 10  1  0  0  0  0
  6  7  2  0  0  0  0
  6 33  1  0  0  0  0
  7  8  1  0  0  0  0
  7 34  1  0  0  0  0
  8  9  2  0  0  0  0
  8 35  1  0  0  0  0
  9 10  1  0  0  0  0
  9 36  1  0  0  0  0
 10 11  2  0  0  0  0
 11 12  1  0  0  0  0
 11 37  1  0  0  0  0
 12 13  1  0  0  0  0
 12 38  1  0  0  0  0
 13 39  1  0  0  0  0
 14 15  1  0  0  0  0
 14 40  1  0  0  0  0
 15 16  2  0  0  0  0
 15 20  1  0  0  0  0
 16 17  1  0  0  0  0
 16 41  1  0  0  0  0
 17 18  1  0  0  0  0
 17 19  2  0  0  0  0
 19 21  1  0  0  0  0
 19 42  1  0  0  0  0
 20 21  2  0  0  0  0
 20 43  1  0  0  0  0
 21 22  1  0  0  0  0
 22 23  1  0  0  0  0
 23 24  2  0  0  0  0
 23 27  1  0  0  0  0
 24 25  1  0  0  0  0
 24 44  1  0  0  0  0
 25 26  2  0  0  0  0
 25 45  1  0  0  0  0
 26 28  1  0  0  0  0
 26 46  1  0  0  0  0
 27 28  2  0  0  0  0
 28 29  1  0  0  0  0
 29 30  1  0  0  0  0
 30 47  1  0  0  0  0
 30 48  1  0  0  0  0
 30 49  1  0  0  0  0
M  END
$$$$
