Mpro-x12419_ligand
 OpenBabel04052409413D

 52 55  0  0  0  0  0  0  0  0999 V2000
    9.0182    1.6196   21.2100 O   0  0  0  0  0  0  0  0  0  0  0  0
    8.8622    0.5511   21.8063 C   0  0  0  0  0  0  0  0  0  0  0  0
    8.1438   -0.6095   21.0847 C   0  0  0  0  0  0  0  0  0  0  0  0
    7.2732   -0.1116   20.0409 N   0  0  0  0  0  0  0  0  0  0  0  0
    6.0638    0.5396   20.1670 C   0  0  0  0  0  0  0  0  0  0  0  0
    5.2055    0.8886   21.2216 C   0  0  0  0  0  0  0  0  0  0  0  0
    4.0585    1.6509   20.9318 C   0  0  0  0  0  0  0  0  0  0  0  0
    3.7970    2.0579   19.6058 C   0  0  0  0  0  0  0  0  0  0  0  0
    4.6623    1.6852   18.5578 C   0  0  0  0  0  0  0  0  0  0  0  0
    5.8054    0.9075   18.8319 C   0  0  0  0  0  0  0  0  0  0  0  0
    6.8010    0.4237   18.0121 N   0  0  0  0  0  0  0  0  0  0  0  0
    7.6681   -0.1973   18.7436 N   0  0  0  0  0  0  0  0  0  0  0  0
    9.2925    0.3670   23.0786 N   0  0  0  0  0  0  0  0  0  0  0  0
    9.2211   -0.8979   23.7075 C   0  0  0  0  0  0  0  0  0  0  0  0
    8.3389   -1.0936   24.7850 C   0  0  0  0  0  0  0  0  0  0  0  0
    8.2341   -2.3568   25.3907 C   0  0  0  0  0  0  0  0  0  0  0  0
   10.0202   -1.9646   23.2516 C   0  0  0  0  0  0  0  0  0  0  0  0
    9.9184   -3.2237   23.8631 C   0  0  0  0  0  0  0  0  0  0  0  0
    9.0157   -3.4448   24.9345 C   0  0  0  0  0  0  0  0  0  0  0  0
    8.9021   -4.7152   25.5335 N   0  0  0  0  0  0  0  0  0  0  0  0
    9.8336   -5.7611   25.1596 C   0  0  0  0  0  0  0  0  0  0  0  0
    7.8564   -4.9923   26.5081 C   0  0  0  0  0  0  0  0  0  0  0  0
    9.8238    1.4882   23.8656 C   0  0  0  0  0  0  0  0  0  0  0  0
   11.2415    1.8426   23.4606 C   0  0  0  0  0  0  0  0  0  0  0  0
   11.5016    3.0286   22.7453 C   0  0  0  0  0  0  0  0  0  0  0  0
   12.8049    3.3088   22.2964 C   0  0  0  0  0  0  0  0  0  0  0  0
   13.8494    2.4065   22.5699 C   0  0  0  0  0  0  0  0  0  0  0  0
   13.5974    1.2299   23.2985 C   0  0  0  0  0  0  0  0  0  0  0  0
   12.2948    0.9533   23.7509 C   0  0  0  0  0  0  0  0  0  0  0  0
    7.5244   -1.1878   21.7708 H   0  0  0  0  0  0  0  0  0  0  0  0
    8.8838   -1.2867   20.6569 H   0  0  0  0  0  0  0  0  0  0  0  0
    5.4275    0.5847   22.2320 H   0  0  0  0  0  0  0  0  0  0  0  0
    3.3842    1.9384   21.7238 H   0  0  0  0  0  0  0  0  0  0  0  0
    2.9261    2.6572   19.3872 H   0  0  0  0  0  0  0  0  0  0  0  0
    4.4582    2.0019   17.5463 H   0  0  0  0  0  0  0  0  0  0  0  0
    7.7290   -0.2786   25.1423 H   0  0  0  0  0  0  0  0  0  0  0  0
    7.5444   -2.4649   26.2133 H   0  0  0  0  0  0  0  0  0  0  0  0
   10.7093   -1.8229   22.4311 H   0  0  0  0  0  0  0  0  0  0  0  0
   10.5495   -4.0108   23.4852 H   0  0  0  0  0  0  0  0  0  0  0  0
    9.6478   -6.6649   25.7294 H   0  0  0  0  0  0  0  0  0  0  0  0
    9.7244   -6.0161   24.1053 H   0  0  0  0  0  0  0  0  0  0  0  0
   10.8605   -5.4482   25.3482 H   0  0  0  0  0  0  0  0  0  0  0  0
    7.8599   -6.0388   26.8114 H   0  0  0  0  0  0  0  0  0  0  0  0
    8.0065   -4.3901   27.4006 H   0  0  0  0  0  0  0  0  0  0  0  0
    6.8720   -4.7688   26.0955 H   0  0  0  0  0  0  0  0  0  0  0  0
    9.8291    1.2405   24.9284 H   0  0  0  0  0  0  0  0  0  0  0  0
    9.1751    2.3604   23.7749 H   0  0  0  0  0  0  0  0  0  0  0  0
   10.6963    3.7095   22.5143 H   0  0  0  0  0  0  0  0  0  0  0  0
   12.9975    4.2036   21.7233 H   0  0  0  0  0  0  0  0  0  0  0  0
   14.8462    2.6124   22.2137 H   0  0  0  0  0  0  0  0  0  0  0  0
   14.4027    0.5418   23.5063 H   0  0  0  0  0  0  0  0  0  0  0  0
   12.0953    0.0537   24.3113 H   0  0  0  0  0  0  0  0  0  0  0  0
  1  2  2  0  0  0  0
  2  3  1  0  0  0  0
  2 13  1  0  0  0  0
  3  4  1  0  0  0  0
  3 30  1  0  0  0  0
  3 31  1  0  0  0  0
  4  5  1  0  0  0  0
  4 12  1  0  0  0  0
  5  6  2  0  0  0  0
  5 10  1  0  0  0  0
  6  7  1  0  0  0  0
  6 32  1  0  0  0  0
  7  8  2  0  0  0  0
  7 33  1  0  0  0  0
  8  9  1  0  0  0  0
  8 34  1  0  0  0  0
  9 10  2  0  0  0  0
  9 35  1  0  0  0  0
 10 11  1  0  0  0  0
 11 12  2  0  0  0  0
 13 14  1  0  0  0  0
 13 23  1  0  0  0  0
 14 15  2  0  0  0  0
 14 17  1  0  0  0  0
 15 16  1  0  0  0  0
 15 36  1  0  0  0  0
 16 19  2  0  0  0  0
 16 37  1  0  0  0  0
 17 18  2  0  0  0  0
 17 38  1  0  0  0  0
 18 19  1  0  0  0  0
 18 39  1  0  0  0  0
 19 20  1  0  0  0  0
 20 21  1  0  0  0  0
 20 22  1  0  0  0  0
 21 40  1  0  0  0  0
 21 41  1  0  0  0  0
 21 42  1  0  0  0  0
 22 43  1  0  0  0  0
 22 44  1  0  0  0  0
 22 45  1  0  0  0  0
 23 24  1  0  0  0  0
 23 46  1  0  0  0  0
 23 47  1  0  0  0  0
 24 25  2  0  0  0  0
 24 29  1  0  0  0  0
 25 26  1  0  0  0  0
 25 48  1  0  0  0  0
 26 27  2  0  0  0  0
 26 49  1  0  0  0  0
 27 28  1  0  0  0  0
 27 50  1  0  0  0  0
 28 29  2  0  0  0  0
 28 51  1  0  0  0  0
 29 52  1  0  0  0  0
M  END
$$$$
