Mpro-x11011_ligand
 OpenBabel04052409413D

 31 32  0  0  0  0  0  0  0  0999 V2000
   10.4760    0.8269   22.9376 C   0  0  0  0  0  0  0  0  0  0  0  0
    6.0034    0.5218   17.4361 N   0  0  0  0  0  0  0  0  0  0  0  0
   12.4875   -1.0682   22.4226 C   0  0  0  0  0  0  0  0  0  0  0  0
    5.0045    1.1435   20.0019 C   0  0  0  0  0  0  0  0  0  0  0  0
   12.8273    0.1916   22.9460 C   0  0  0  0  0  0  0  0  0  0  0  0
    4.4793    1.5326   21.3694 C   0  0  0  0  0  0  0  0  0  0  0  0
   10.1418   -0.4316   22.3858 C   0  0  0  0  0  0  0  0  0  0  0  0
    4.5414    1.8258   18.8601 C   0  0  0  0  0  0  0  0  0  0  0  0
    8.8191   -0.7708   22.0271 N   0  0  0  0  0  0  0  0  0  0  0  0
    6.6179   -0.5981   21.0021 C   0  0  0  0  0  0  0  0  0  0  0  0
    8.2591    1.1609   20.9761 O   0  0  0  0  0  0  0  0  0  0  0  0
    5.9825    0.1336   19.8311 C   0  0  0  0  0  0  0  0  0  0  0  0
    7.9780    0.0173   21.3401 C   0  0  0  0  0  0  0  0  0  0  0  0
    6.4347   -0.1407   18.5259 C   0  0  0  0  0  0  0  0  0  0  0  0
   11.8202    1.1373   23.2149 C   0  0  0  0  0  0  0  0  0  0  0  0
   11.1458   -1.3912   22.1691 C   0  0  0  0  0  0  0  0  0  0  0  0
    5.0813    1.4869   17.6082 C   0  0  0  0  0  0  0  0  0  0  0  0
   13.7119   -2.2037   22.0269 Cl  0  0  0  0  0  0  0  0  0  0  0  0
    9.7117    1.5667   23.1274 H   0  0  0  0  0  0  0  0  0  0  0  0
   13.8630    0.4330   23.1157 H   0  0  0  0  0  0  0  0  0  0  0  0
    4.0677    0.6678   21.8847 H   0  0  0  0  0  0  0  0  0  0  0  0
    5.2840    1.9435   21.9780 H   0  0  0  0  0  0  0  0  0  0  0  0
    3.6937    2.2843   21.2940 H   0  0  0  0  0  0  0  0  0  0  0  0
    3.8124    2.6197   18.9368 H   0  0  0  0  0  0  0  0  0  0  0  0
    8.5404   -1.7302   22.1705 H   0  0  0  0  0  0  0  0  0  0  0  0
    6.7371   -1.6504   20.7450 H   0  0  0  0  0  0  0  0  0  0  0  0
    5.9878   -0.5675   21.8887 H   0  0  0  0  0  0  0  0  0  0  0  0
    7.1953   -0.8874   18.3536 H   0  0  0  0  0  0  0  0  0  0  0  0
   12.0805    2.1100   23.6007 H   0  0  0  0  0  0  0  0  0  0  0  0
   10.8987   -2.3528   21.7465 H   0  0  0  0  0  0  0  0  0  0  0  0
    4.7961    2.0318   16.7230 H   0  0  0  0  0  0  0  0  0  0  0  0
  1  7  2  0  0  0  0
  1 15  1  0  0  0  0
  1 19  1  0  0  0  0
  2 14  2  0  0  0  0
  2 17  1  0  0  0  0
  3  5  1  0  0  0  0
  3 16  2  0  0  0  0
  3 18  1  0  0  0  0
  4  6  1  0  0  0  0
  4  8  1  0  0  0  0
  4 12  2  0  0  0  0
  5 15  2  0  0  0  0
  5 20  1  0  0  0  0
  6 21  1  0  0  0  0
  6 22  1  0  0  0  0
  6 23  1  0  0  0  0
  7  9  1  0  0  0  0
  7 16  1  0  0  0  0
  8 17  2  0  0  0  0
  8 24  1  0  0  0  0
  9 13  1  0  0  0  0
  9 25  1  0  0  0  0
 10 12  1  0  0  0  0
 10 13  1  0  0  0  0
 10 26  1  0  0  0  0
 10 27  1  0  0  0  0
 11 13  2  0  0  0  0
 12 14  1  0  0  0  0
 14 28  1  0  0  0  0
 15 29  1  0  0  0  0
 16 30  1  0  0  0  0
 17 31  1  0  0  0  0
M  END
$$$$
