Mpro-x11271_ligand
 OpenBabel04052409413D

 35 36  0  0  0  0  0  0  0  0999 V2000
    8.4229    0.4334   21.0242 O   0  0  0  0  0  0  0  0  0  0  0  0
    7.7857   -0.5919   21.2797 C   0  0  0  0  0  0  0  0  0  0  0  0
    8.3283   -1.6401   22.2614 C   0  0  0  0  0  0  0  0  0  0  0  0
    9.6420   -1.1796   22.8652 C   0  0  0  0  0  0  0  0  0  0  0  0
   10.8637   -1.5751   22.2901 C   0  0  0  0  0  0  0  0  0  0  0  0
   12.0697   -1.0341   22.7662 C   0  0  0  0  0  0  0  0  0  0  0  0
   13.5567   -1.5125   22.0414 Cl  0  0  0  0  0  0  0  0  0  0  0  0
   12.0558   -0.1018   23.8219 C   0  0  0  0  0  0  0  0  0  0  0  0
    9.6361   -0.2981   23.9643 C   0  0  0  0  0  0  0  0  0  0  0  0
   10.8466    0.2465   24.4577 C   0  0  0  0  0  0  0  0  0  0  0  0
   10.9144    1.1122   25.5265 O   0  0  0  0  0  0  0  0  0  0  0  0
    9.7180    1.3474   26.2567 C   0  0  0  0  0  0  0  0  0  0  0  0
    6.5820   -0.8411   20.7455 N   0  0  0  0  0  0  0  0  0  0  0  0
    5.9928   -0.0136   19.7646 C   0  0  0  0  0  0  0  0  0  0  0  0
    4.9560    0.8942   20.0802 C   0  0  0  0  0  0  0  0  0  0  0  0
    4.4136    1.0268   21.4896 C   0  0  0  0  0  0  0  0  0  0  0  0
    4.4444    1.7044   19.0471 C   0  0  0  0  0  0  0  0  0  0  0  0
    4.9704    1.5581   17.7501 C   0  0  0  0  0  0  0  0  0  0  0  0
    5.9532    0.6879   17.4413 N   0  0  0  0  0  0  0  0  0  0  0  0
    6.4514   -0.0774   18.4333 C   0  0  0  0  0  0  0  0  0  0  0  0
    8.4708   -2.5889   21.7432 H   0  0  0  0  0  0  0  0  0  0  0  0
    7.5996   -1.8127   23.0544 H   0  0  0  0  0  0  0  0  0  0  0  0
   10.8763   -2.2671   21.4632 H   0  0  0  0  0  0  0  0  0  0  0  0
   12.9835    0.3295   24.1678 H   0  0  0  0  0  0  0  0  0  0  0  0
    8.6828   -0.0263   24.3896 H   0  0  0  0  0  0  0  0  0  0  0  0
    9.9278    1.9925   27.1055 H   0  0  0  0  0  0  0  0  0  0  0  0
    8.9701    1.8533   25.6455 H   0  0  0  0  0  0  0  0  0  0  0  0
    9.3008    0.4186   26.6493 H   0  0  0  0  0  0  0  0  0  0  0  0
    6.0704   -1.6585   21.0439 H   0  0  0  0  0  0  0  0  0  0  0  0
    3.4596    1.5548   21.4947 H   0  0  0  0  0  0  0  0  0  0  0  0
    4.2565    0.0467   21.9378 H   0  0  0  0  0  0  0  0  0  0  0  0
    5.1164    1.5827   22.1105 H   0  0  0  0  0  0  0  0  0  0  0  0
    3.6641    2.4263   19.2346 H   0  0  0  0  0  0  0  0  0  0  0  0
    4.6022    2.1661   16.9389 H   0  0  0  0  0  0  0  0  0  0  0  0
    7.2455   -0.7557   18.1575 H   0  0  0  0  0  0  0  0  0  0  0  0
  1  2  2  0  0  0  0
  2  3  1  0  0  0  0
  2 13  1  0  0  0  0
  3  4  1  0  0  0  0
  3 21  1  0  0  0  0
  3 22  1  0  0  0  0
  4  5  2  0  0  0  0
  4  9  1  0  0  0  0
  5  6  1  0  0  0  0
  5 23  1  0  0  0  0
  6  7  1  0  0  0  0
  6  8  2  0  0  0  0
  8 10  1  0  0  0  0
  8 24  1  0  0  0  0
  9 10  2  0  0  0  0
  9 25  1  0  0  0  0
 10 11  1  0  0  0  0
 11 12  1  0  0  0  0
 12 26  1  0  0  0  0
 12 27  1  0  0  0  0
 12 28  1  0  0  0  0
 13 14  1  0  0  0  0
 13 29  1  0  0  0  0
 14 15  2  0  0  0  0
 14 20  1  0  0  0  0
 15 16  1  0  0  0  0
 15 17  1  0  0  0  0
 16 30  1  0  0  0  0
 16 31  1  0  0  0  0
 16 32  1  0  0  0  0
 17 18  2  0  0  0  0
 17 33  1  0  0  0  0
 18 19  1  0  0  0  0
 18 34  1  0  0  0  0
 19 20  2  0  0  0  0
 20 35  1  0  0  0  0
M  END
$$$$
