Mpro-x12679_ligand
 OpenBabel04052409413D

 43 46  0  0  0  0  0  0  0  0999 V2000
    5.8456    1.0067   16.7414 O   0  0  0  0  0  0  0  0  0  0  0  0
    5.3313    0.8596   17.8435 C   0  0  0  0  0  0  0  0  0  0  0  0
    5.7030   -0.2040   18.7741 C   0  0  0  0  0  0  0  0  0  0  0  0
    4.3882    1.7160   18.2777 N   0  0  0  0  0  0  0  0  0  0  0  0
    3.7599    1.6727   19.5434 C   0  0  0  0  0  0  0  0  0  0  0  0
    4.1229    0.6680   20.4661 C   0  0  0  0  0  0  0  0  0  0  0  0
    3.4900    0.6421   21.7307 C   0  0  0  0  0  0  0  0  0  0  0  0
    2.5024    1.5946   22.0505 C   0  0  0  0  0  0  0  0  0  0  0  0
    2.1443    2.5855   21.1166 C   0  0  0  0  0  0  0  0  0  0  0  0
    2.7795    2.6294   19.8622 C   0  0  0  0  0  0  0  0  0  0  0  0
    5.1577   -0.2888   20.0053 C   0  0  0  0  0  0  0  0  0  0  0  0
    5.6110   -1.3474   20.8990 C   0  0  0  0  0  0  0  0  0  0  0  0
    5.3211   -2.5313   20.7176 O   0  0  0  0  0  0  0  0  0  0  0  0
    6.3740   -0.9291   21.9441 N   0  0  0  0  0  0  0  0  0  0  0  0
    6.9223   -1.8746   22.9156 C   0  0  0  0  0  0  0  0  0  0  0  0
    8.4353   -1.9872   22.6721 C   0  0  0  0  0  0  0  0  0  0  0  0
    6.9128    0.4300   22.1221 C   0  0  0  0  0  0  0  0  0  0  0  0
    8.4459    0.4458   22.1694 C   0  0  0  0  0  0  0  0  0  0  0  0
    9.0213    1.4810   21.8243 O   0  0  0  0  0  0  0  0  0  0  0  0
    9.1071   -0.6805   22.5482 N   0  0  0  0  0  0  0  0  0  0  0  0
   10.5126   -0.6425   22.7457 C   0  0  0  0  0  0  0  0  0  0  0  0
   11.3449   -1.5279   22.0325 C   0  0  0  0  0  0  0  0  0  0  0  0
   12.7424   -1.4212   22.1355 C   0  0  0  0  0  0  0  0  0  0  0  0
   13.7569   -2.4133   21.1607 Cl  0  0  0  0  0  0  0  0  0  0  0  0
   11.0884    0.2945   23.6330 C   0  0  0  0  0  0  0  0  0  0  0  0
   12.4837    0.3700   23.7675 C   0  0  0  0  0  0  0  0  0  0  0  0
   13.3089   -0.4776   23.0087 C   0  0  0  0  0  0  0  0  0  0  0  0
    6.4500   -0.9208   18.4683 H   0  0  0  0  0  0  0  0  0  0  0  0
    4.1308    2.4796   17.6649 H   0  0  0  0  0  0  0  0  0  0  0  0
    3.7520   -0.0999   22.4681 H   0  0  0  0  0  0  0  0  0  0  0  0
    2.0208    1.5681   23.0168 H   0  0  0  0  0  0  0  0  0  0  0  0
    1.3899    3.3180   21.3634 H   0  0  0  0  0  0  0  0  0  0  0  0
    2.5181    3.3958   19.1472 H   0  0  0  0  0  0  0  0  0  0  0  0
    6.4566   -2.8604   22.8786 H   0  0  0  0  0  0  0  0  0  0  0  0
    6.7335   -1.4947   23.9210 H   0  0  0  0  0  0  0  0  0  0  0  0
    8.6071   -2.5462   21.7518 H   0  0  0  0  0  0  0  0  0  0  0  0
    8.8922   -2.5643   23.4777 H   0  0  0  0  0  0  0  0  0  0  0  0
    6.5414    0.8237   23.0692 H   0  0  0  0  0  0  0  0  0  0  0  0
    6.6089    1.1565   21.3700 H   0  0  0  0  0  0  0  0  0  0  0  0
   10.9123   -2.2591   21.3727 H   0  0  0  0  0  0  0  0  0  0  0  0
   10.4637    0.9702   24.1996 H   0  0  0  0  0  0  0  0  0  0  0  0
   12.9159    1.0968   24.4336 H   0  0  0  0  0  0  0  0  0  0  0  0
   14.3765   -0.3964   23.0873 H   0  0  0  0  0  0  0  0  0  0  0  0
  1  2  2  0  0  0  0
  2  3  1  0  0  0  0
  2  4  1  0  0  0  0
  3 11  2  0  0  0  0
  3 28  1  0  0  0  0
  4  5  1  0  0  0  0
  4 29  1  0  0  0  0
  5  6  2  0  0  0  0
  5 10  1  0  0  0  0
  6  7  1  0  0  0  0
  6 11  1  0  0  0  0
  7  8  2  0  0  0  0
  7 30  1  0  0  0  0
  8  9  1  0  0  0  0
  8 31  1  0  0  0  0
  9 10  2  0  0  0  0
  9 32  1  0  0  0  0
 10 33  1  0  0  0  0
 11 12  1  0  0  0  0
 12 13  2  0  0  0  0
 12 14  1  0  0  0  0
 14 15  1  0  0  0  0
 14 17  1  0  0  0  0
 15 16  1  0  0  0  0
 15 34  1  0  0  0  0
 15 35  1  0  0  0  0
 16 20  1  0  0  0  0
 16 36  1  0  0  0  0
 16 37  1  0  0  0  0
 17 18  1  0  0  0  0
 17 38  1  0  0  0  0
 17 39  1  0  0  0  0
 18 19  2  0  0  0  0
 18 20  1  0  0  0  0
 20 21  1  0  0  0  0
 21 22  2  0  0  0  0
 21 25  1  0  0  0  0
 22 23  1  0  0  0  0
 22 40  1  0  0  0  0
 23 24  1  0  0  0  0
 23 27  2  0  0  0  0
 25 26  2  0  0  0  0
 25 41  1  0  0  0  0
 26 27  1  0  0  0  0
 26 42  1  0  0  0  0
 27 43  1  0  0  0  0
M  END
$$$$
