Mpro-x11507_ligand
 OpenBabel04052409413D

 38 40  0  0  0  0  0  0  0  0999 V2000
    8.5519    1.3164   21.1477 O   0  0  0  0  0  0  0  0  0  0  0  0
    8.1695    0.1710   21.3991 C   0  0  0  0  0  0  0  0  0  0  0  0
    8.8146   -0.6425   22.5274 C   0  0  0  0  0  0  0  0  0  0  0  0
   10.3086   -0.3827   22.6221 C   0  0  0  0  0  0  0  0  0  0  0  0
   10.7919    0.7664   23.2823 C   0  0  0  0  0  0  0  0  0  0  0  0
   12.1753    1.0247   23.3349 C   0  0  0  0  0  0  0  0  0  0  0  0
   13.0781    0.1376   22.7199 C   0  0  0  0  0  0  0  0  0  0  0  0
   11.2195   -1.2833   22.0357 C   0  0  0  0  0  0  0  0  0  0  0  0
   12.6005   -1.0129   22.0654 C   0  0  0  0  0  0  0  0  0  0  0  0
   13.7025   -2.0806   21.2839 Cl  0  0  0  0  0  0  0  0  0  0  0  0
    7.1839   -0.4332   20.7182 N   0  0  0  0  0  0  0  0  0  0  0  0
    6.4009    0.2108   19.7320 C   0  0  0  0  0  0  0  0  0  0  0  0
    5.3528    1.1121   20.0584 C   0  0  0  0  0  0  0  0  0  0  0  0
    4.6717    1.7270   18.9867 C   0  0  0  0  0  0  0  0  0  0  0  0
    5.0433    1.4198   17.6668 C   0  0  0  0  0  0  0  0  0  0  0  0
    6.0182    0.5439   17.3602 N   0  0  0  0  0  0  0  0  0  0  0  0
    6.6762   -0.0472   18.3760 C   0  0  0  0  0  0  0  0  0  0  0  0
    4.9556    1.4315   21.4403 C   0  0  0  0  0  0  0  0  0  0  0  0
    4.8218    2.7765   21.8505 C   0  0  0  0  0  0  0  0  0  0  0  0
    4.4231    3.0938   23.1621 C   0  0  0  0  0  0  0  0  0  0  0  0
    4.1511    2.0650   24.0831 C   0  0  0  0  0  0  0  0  0  0  0  0
    4.2818    0.7205   23.6889 C   0  0  0  0  0  0  0  0  0  0  0  0
    4.6784    0.4096   22.3755 C   0  0  0  0  0  0  0  0  0  0  0  0
    8.6375   -1.7084   22.3731 H   0  0  0  0  0  0  0  0  0  0  0  0
    8.3355   -0.3760   23.4702 H   0  0  0  0  0  0  0  0  0  0  0  0
   10.0962    1.4602   23.7293 H   0  0  0  0  0  0  0  0  0  0  0  0
   12.5431    1.9128   23.8248 H   0  0  0  0  0  0  0  0  0  0  0  0
   14.1369    0.3462   22.7415 H   0  0  0  0  0  0  0  0  0  0  0  0
   10.8584   -2.1740   21.5440 H   0  0  0  0  0  0  0  0  0  0  0  0
    6.9700   -1.3979   20.9270 H   0  0  0  0  0  0  0  0  0  0  0  0
    3.8772    2.4376   19.1655 H   0  0  0  0  0  0  0  0  0  0  0  0
    4.5548    1.9038   16.8376 H   0  0  0  0  0  0  0  0  0  0  0  0
    7.4678   -0.7263   18.0982 H   0  0  0  0  0  0  0  0  0  0  0  0
    5.0277    3.5767   21.1538 H   0  0  0  0  0  0  0  0  0  0  0  0
    4.3268    4.1269   23.4618 H   0  0  0  0  0  0  0  0  0  0  0  0
    3.8446    2.3063   25.0890 H   0  0  0  0  0  0  0  0  0  0  0  0
    4.0767   -0.0709   24.3948 H   0  0  0  0  0  0  0  0  0  0  0  0
    4.7678   -0.6260   22.0831 H   0  0  0  0  0  0  0  0  0  0  0  0
  1  2  2  0  0  0  0
  2  3  1  0  0  0  0
  2 11  1  0  0  0  0
  3  4  1  0  0  0  0
  3 24  1  0  0  0  0
  3 25  1  0  0  0  0
  4  5  2  0  0  0  0
  4  8  1  0  0  0  0
  5  6  1  0  0  0  0
  5 26  1  0  0  0  0
  6  7  2  0  0  0  0
  6 27  1  0  0  0  0
  7  9  1  0  0  0  0
  7 28  1  0  0  0  0
  8  9  2  0  0  0  0
  8 29  1  0  0  0  0
  9 10  1  0  0  0  0
 11 12  1  0  0  0  0
 11 30  1  0  0  0  0
 12 13  2  0  0  0  0
 12 17  1  0  0  0  0
 13 14  1  0  0  0  0
 13 18  1  0  0  0  0
 14 15  2  0  0  0  0
 14 31  1  0  0  0  0
 15 16  1  0  0  0  0
 15 32  1  0  0  0  0
 16 17  2  0  0  0  0
 17 33  1  0  0  0  0
 18 19  2  0  0  0  0
 18 23  1  0  0  0  0
 19 20  1  0  0  0  0
 19 34  1  0  0  0  0
 20 21  2  0  0  0  0
 20 35  1  0  0  0  0
 21 22  1  0  0  0  0
 21 36  1  0  0  0  0
 22 23  2  0  0  0  0
 22 37  1  0  0  0  0
 23 38  1  0  0  0  0
M  END
$$$$
