Mpro-x12695_ligand
 OpenBabel04052409413D

 40 43  0  0  1  0  0  0  0  0999 V2000
    8.5066    0.7569   21.1253 O   0  0  0  0  0  0  0  0  0  0  0  0
    7.9935   -0.2895   21.5331 C   0  0  0  0  0  0  0  0  0  0  0  0
    8.5440   -0.9844   22.8061 C   0  0  1  0  0  0  0  0  0  0  0  0
   10.0333   -0.6620   22.9342 C   0  0  0  0  0  0  0  0  0  0  0  0
   11.0192   -1.4608   22.3145 C   0  0  0  0  0  0  0  0  0  0  0  0
   12.3681   -1.0588   22.3345 C   0  0  0  0  0  0  0  0  0  0  0  0
   13.5621   -2.0072   21.5322 Cl  0  0  0  0  0  0  0  0  0  0  0  0
   12.7365    0.1436   22.9653 C   0  0  0  0  0  0  0  0  0  0  0  0
   11.7632    0.9304   23.6080 C   0  0  0  0  0  0  0  0  0  0  0  0
   10.4170    0.5209   23.6135 C   0  0  0  0  0  0  0  0  0  0  0  0
    9.4491    1.3288   24.2615 N   0  0  0  0  0  0  0  0  0  0  0  0
    8.1727    0.9590   24.4576 C   0  0  0  0  0  0  0  0  0  0  0  0
    7.3332    1.7228   24.9301 O   0  0  0  0  0  0  0  0  0  0  0  0
    7.7809   -0.4734   24.0576 C   0  0  0  0  0  0  0  0  0  0  0  0
    8.3081   -2.3830   22.7274 O   0  0  0  0  0  0  0  0  0  0  0  0
    6.9404   -0.8455   20.9117 N   0  0  0  0  0  0  0  0  0  0  0  0
    6.2277   -0.1625   19.8990 C   0  0  0  0  0  0  0  0  0  0  0  0
    5.1377    0.6848   20.2089 C   0  0  0  0  0  0  0  0  0  0  0  0
    4.6319    0.8172   21.5213 C   0  0  0  0  0  0  0  0  0  0  0  0
    3.5628    1.6940   21.7806 C   0  0  0  0  0  0  0  0  0  0  0  0
    2.9957    2.4462   20.7344 C   0  0  0  0  0  0  0  0  0  0  0  0
    3.4930    2.3221   19.4239 C   0  0  0  0  0  0  0  0  0  0  0  0
    4.5543    1.4343   19.1595 C   0  0  0  0  0  0  0  0  0  0  0  0
    5.0593    1.2727   17.8557 C   0  0  0  0  0  0  0  0  0  0  0  0
    6.0769    0.4414   17.5540 N   0  0  0  0  0  0  0  0  0  0  0  0
    6.6481   -0.2550   18.5589 C   0  0  0  0  0  0  0  0  0  0  0  0
   10.7416   -2.3591   21.7842 H   0  0  0  0  0  0  0  0  0  0  0  0
   13.7669    0.4629   22.9471 H   0  0  0  0  0  0  0  0  0  0  0  0
   12.0486    1.8544   24.0804 H   0  0  0  0  0  0  0  0  0  0  0  0
    9.7379    2.2448   24.5732 H   0  0  0  0  0  0  0  0  0  0  0  0
    8.0081   -1.1098   24.9147 H   0  0  0  0  0  0  0  0  0  0  0  0
    6.7011   -0.5367   23.9148 H   0  0  0  0  0  0  0  0  0  0  0  0
    8.6449   -2.7879   23.5126 H   0  0  0  0  0  0  0  0  0  0  0  0
    6.5356   -1.6845   21.3040 H   0  0  0  0  0  0  0  0  0  0  0  0
    5.0543    0.2537   22.3390 H   0  0  0  0  0  0  0  0  0  0  0  0
    3.1802    1.7918   22.7857 H   0  0  0  0  0  0  0  0  0  0  0  0
    2.1776    3.1201   20.9414 H   0  0  0  0  0  0  0  0  0  0  0  0
    3.0538    2.9058   18.6263 H   0  0  0  0  0  0  0  0  0  0  0  0
    4.6459    1.8338   17.0318 H   0  0  0  0  0  0  0  0  0  0  0  0
    7.4859   -0.8793   18.2855 H   0  0  0  0  0  0  0  0  0  0  0  0
  1  2  2  0  0  0  0
  2 16  1  0  0  0  0
  3  2  1  6  0  0  0
  3  4  1  0  0  0  0
  3 14  1  0  0  0  0
  3 15  1  0  0  0  0
  4  5  2  0  0  0  0
  4 10  1  0  0  0  0
  5  6  1  0  0  0  0
  5 27  1  0  0  0  0
  6  7  1  0  0  0  0
  6  8  2  0  0  0  0
  8  9  1  0  0  0  0
  8 28  1  0  0  0  0
  9 10  2  0  0  0  0
  9 29  1  0  0  0  0
 10 11  1  0  0  0  0
 11 12  1  0  0  0  0
 11 30  1  0  0  0  0
 12 13  2  0  0  0  0
 12 14  1  0  0  0  0
 14 31  1  0  0  0  0
 14 32  1  0  0  0  0
 15 33  1  0  0  0  0
 16 17  1  0  0  0  0
 16 34  1  0  0  0  0
 17 18  2  0  0  0  0
 17 26  1  0  0  0  0
 18 19  1  0  0  0  0
 18 23  1  0  0  0  0
 19 20  2  0  0  0  0
 19 35  1  0  0  0  0
 20 21  1  0  0  0  0
 20 36  1  0  0  0  0
 21 22  2  0  0  0  0
 21 37  1  0  0  0  0
 22 23  1  0  0  0  0
 22 38  1  0  0  0  0
 23 24  2  0  0  0  0
 24 25  1  0  0  0  0
 24 39  1  0  0  0  0
 25 26  2  0  0  0  0
 26 40  1  0  0  0  0
M  END
$$$$
