Mpro-x11498_ligand
 OpenBabel04052409413D

 39 42  0  0  1  0  0  0  0  0999 V2000
    8.9656    0.8738   21.1071 O   0  0  0  0  0  0  0  0  0  0  0  0
    8.4980   -0.2082   21.4708 C   0  0  0  0  0  0  0  0  0  0  0  0
    9.0721   -0.9527   22.6933 C   0  0  2  0  0  0  0  0  0  0  0  0
    8.3735   -0.5212   23.9922 C   0  0  0  0  0  0  0  0  0  0  0  0
    8.8413    0.8771   24.4226 C   0  0  0  0  0  0  0  0  0  0  0  0
   10.2489    0.9312   24.6306 O   0  0  0  0  0  0  0  0  0  0  0  0
   10.5592   -0.6831   22.8030 C   0  0  0  0  0  0  0  0  0  0  0  0
   11.0521    0.2803   23.7189 C   0  0  0  0  0  0  0  0  0  0  0  0
   12.4291    0.5680   23.7268 C   0  0  0  0  0  0  0  0  0  0  0  0
   13.3107   -0.0965   22.8538 C   0  0  0  0  0  0  0  0  0  0  0  0
   11.4501   -1.3904   21.9768 C   0  0  0  0  0  0  0  0  0  0  0  0
   12.8203   -1.0876   21.9853 C   0  0  0  0  0  0  0  0  0  0  0  0
   13.8800   -1.9270   20.9210 Cl  0  0  0  0  0  0  0  0  0  0  0  0
    7.4804   -0.8074   20.8356 N   0  0  0  0  0  0  0  0  0  0  0  0
    6.6605   -0.1385   19.8987 C   0  0  0  0  0  0  0  0  0  0  0  0
    5.4982    0.5572   20.3009 C   0  0  0  0  0  0  0  0  0  0  0  0
    5.0574    0.5765   21.6430 C   0  0  0  0  0  0  0  0  0  0  0  0
    3.9168    1.3177   21.9995 C   0  0  0  0  0  0  0  0  0  0  0  0
    3.2172    2.0547   21.0260 C   0  0  0  0  0  0  0  0  0  0  0  0
    3.6396    2.0333   19.6849 C   0  0  0  0  0  0  0  0  0  0  0  0
    4.7680    1.2721   19.3209 C   0  0  0  0  0  0  0  0  0  0  0  0
    5.1978    1.2085   17.9836 C   0  0  0  0  0  0  0  0  0  0  0  0
    6.2833    0.5110   17.5925 N   0  0  0  0  0  0  0  0  0  0  0  0
    7.0050   -0.1328   18.5333 C   0  0  0  0  0  0  0  0  0  0  0  0
    8.9338   -2.0245   22.5466 H   0  0  0  0  0  0  0  0  0  0  0  0
    8.6120   -1.2331   24.7839 H   0  0  0  0  0  0  0  0  0  0  0  0
    7.2893   -0.5404   23.8816 H   0  0  0  0  0  0  0  0  0  0  0  0
    8.3462    1.1632   25.3503 H   0  0  0  0  0  0  0  0  0  0  0  0
    8.5653    1.6301   23.6850 H   0  0  0  0  0  0  0  0  0  0  0  0
   12.8076    1.3128   24.4032 H   0  0  0  0  0  0  0  0  0  0  0  0
   14.3609    0.1478   22.8607 H   0  0  0  0  0  0  0  0  0  0  0  0
   11.0725   -2.1625   21.3274 H   0  0  0  0  0  0  0  0  0  0  0  0
    7.1280   -1.6711   21.2272 H   0  0  0  0  0  0  0  0  0  0  0  0
    5.5815    0.0297   22.4104 H   0  0  0  0  0  0  0  0  0  0  0  0
    3.5815    1.3255   23.0246 H   0  0  0  0  0  0  0  0  0  0  0  0
    2.3520    2.6346   21.3114 H   0  0  0  0  0  0  0  0  0  0  0  0
    3.1006    2.6008   18.9391 H   0  0  0  0  0  0  0  0  0  0  0  0
    4.6704    1.7387   17.2050 H   0  0  0  0  0  0  0  0  0  0  0  0
    7.8897   -0.6488   18.1901 H   0  0  0  0  0  0  0  0  0  0  0  0
  1  2  2  0  0  0  0
  2  3  1  0  0  0  0
  2 14  1  0  0  0  0
  3  4  1  0  0  0  0
  3  7  1  0  0  0  0
  3 25  1  6  0  0  0
  4  5  1  0  0  0  0
  4 26  1  0  0  0  0
  4 27  1  0  0  0  0
  5  6  1  0  0  0  0
  5 28  1  0  0  0  0
  5 29  1  0  0  0  0
  6  8  1  0  0  0  0
  7  8  2  0  0  0  0
  7 11  1  0  0  0  0
  8  9  1  0  0  0  0
  9 10  2  0  0  0  0
  9 30  1  0  0  0  0
 10 12  1  0  0  0  0
 10 31  1  0  0  0  0
 11 12  2  0  0  0  0
 11 32  1  0  0  0  0
 12 13  1  0  0  0  0
 14 15  1  0  0  0  0
 14 33  1  0  0  0  0
 15 16  2  0  0  0  0
 15 24  1  0  0  0  0
 16 17  1  0  0  0  0
 16 21  1  0  0  0  0
 17 18  2  0  0  0  0
 17 34  1  0  0  0  0
 18 19  1  0  0  0  0
 18 35  1  0  0  0  0
 19 20  2  0  0  0  0
 19 36  1  0  0  0  0
 20 21  1  0  0  0  0
 20 37  1  0  0  0  0
 21 22  2  0  0  0  0
 22 23  1  0  0  0  0
 22 38  1  0  0  0  0
 23 24  2  0  0  0  0
 24 39  1  0  0  0  0
M  END
$$$$
