Mpro-x10820_ligand
 OpenBabel04052409413D

 46 49  0  0  0  0  0  0  0  0999 V2000
   13.7015   -0.7680   21.8039 S   0  0  0  0  0  0  0  0  0  0  0  0
    8.6440   -4.9910   26.2294 N   0  0  0  0  0  0  0  0  0  0  0  0
    7.4175   -0.4687   18.9105 N   0  0  0  0  0  0  0  0  0  0  0  0
    6.9296   -0.3562   20.1777 N   0  0  0  0  0  0  0  0  0  0  0  0
    8.7152   -3.8458   25.4271 C   0  0  0  0  0  0  0  0  0  0  0  0
   11.9988   -0.6828   22.1010 C   0  0  0  0  0  0  0  0  0  0  0  0
    4.9645    0.9456   21.2264 C   0  0  0  0  0  0  0  0  0  0  0  0
   11.6702    0.2955   23.0090 C   0  0  0  0  0  0  0  0  0  0  0  0
    7.8878   -2.7120   25.6147 C   0  0  0  0  0  0  0  0  0  0  0  0
    9.6717   -3.8294   24.3986 C   0  0  0  0  0  0  0  0  0  0  0  0
    3.7914    2.2341   19.5163 C   0  0  0  0  0  0  0  0  0  0  0  0
    9.8068   -2.7075   23.5686 C   0  0  0  0  0  0  0  0  0  0  0  0
    9.0141   -1.5563   23.7776 C   0  0  0  0  0  0  0  0  0  0  0  0
   13.9376    0.7036   22.6913 C   0  0  0  0  0  0  0  0  0  0  0  0
    7.6321   -0.9836   21.2856 C   0  0  0  0  0  0  0  0  0  0  0  0
    3.9333    1.8320   20.8612 C   0  0  0  0  0  0  0  0  0  0  0  0
   12.7939    1.1097   23.3209 C   0  0  0  0  0  0  0  0  0  0  0  0
    8.6826   -0.0339   21.8807 C   0  0  0  0  0  0  0  0  0  0  0  0
    5.8239    0.4662   20.2248 C   0  0  0  0  0  0  0  0  0  0  0  0
    5.6942    0.8449   18.8721 C   0  0  0  0  0  0  0  0  0  0  0  0
    7.4452   -5.2627   27.0012 C   0  0  0  0  0  0  0  0  0  0  0  0
    9.2725   -0.3558   23.0581 N   0  0  0  0  0  0  0  0  0  0  0  0
    8.9804    0.9941   21.2625 O   0  0  0  0  0  0  0  0  0  0  0  0
   10.3096    0.5248   23.6080 C   0  0  0  0  0  0  0  0  0  0  0  0
    8.0447   -1.5693   24.8027 C   0  0  0  0  0  0  0  0  0  0  0  0
    4.6678    1.7467   18.5254 C   0  0  0  0  0  0  0  0  0  0  0  0
    6.6772    0.2410   18.1155 N   0  0  0  0  0  0  0  0  0  0  0  0
    9.2853   -5.7553   26.0617 H   0  0  0  0  0  0  0  0  0  0  0  0
   11.3603   -1.3853   21.5937 H   0  0  0  0  0  0  0  0  0  0  0  0
    5.0996    0.6491   22.2554 H   0  0  0  0  0  0  0  0  0  0  0  0
    7.1477   -2.6907   26.4005 H   0  0  0  0  0  0  0  0  0  0  0  0
   10.3156   -4.6832   24.2482 H   0  0  0  0  0  0  0  0  0  0  0  0
    3.0118    2.9274   19.2376 H   0  0  0  0  0  0  0  0  0  0  0  0
   10.5539   -2.7619   22.8000 H   0  0  0  0  0  0  0  0  0  0  0  0
   14.9030    1.1776   22.6922 H   0  0  0  0  0  0  0  0  0  0  0  0
    8.1212   -1.8954   20.9474 H   0  0  0  0  0  0  0  0  0  0  0  0
    6.8963   -1.2647   22.0401 H   0  0  0  0  0  0  0  0  0  0  0  0
    3.2595    2.2182   21.6114 H   0  0  0  0  0  0  0  0  0  0  0  0
   12.7130    1.9706   23.9637 H   0  0  0  0  0  0  0  0  0  0  0  0
    7.5340   -6.2289   27.4964 H   0  0  0  0  0  0  0  0  0  0  0  0
    7.2939   -4.5068   27.7700 H   0  0  0  0  0  0  0  0  0  0  0  0
    6.5671   -5.2889   26.3544 H   0  0  0  0  0  0  0  0  0  0  0  0
   10.0243    1.5720   23.5003 H   0  0  0  0  0  0  0  0  0  0  0  0
   10.3639    0.3711   24.6875 H   0  0  0  0  0  0  0  0  0  0  0  0
    7.4372   -0.6949   24.9871 H   0  0  0  0  0  0  0  0  0  0  0  0
    4.5667    2.0756   17.5028 H   0  0  0  0  0  0  0  0  0  0  0  0
  1  6  1  0  0  0  0
  1 14  1  0  0  0  0
  2  5  1  0  0  0  0
  2 21  1  0  0  0  0
  2 28  1  0  0  0  0
  3  4  1  0  0  0  0
  3 27  2  0  0  0  0
  4 15  1  0  0  0  0
  4 19  1  0  0  0  0
  5  9  2  0  0  0  0
  5 10  1  0  0  0  0
  6  8  2  0  0  0  0
  6 29  1  0  0  0  0
  7 16  2  0  0  0  0
  7 19  1  0  0  0  0
  7 30  1  0  0  0  0
  8 17  1  0  0  0  0
  8 24  1  0  0  0  0
  9 25  1  0  0  0  0
  9 31  1  0  0  0  0
 10 12  2  0  0  0  0
 10 32  1  0  0  0  0
 11 16  1  0  0  0  0
 11 26  2  0  0  0  0
 11 33  1  0  0  0  0
 12 13  1  0  0  0  0
 12 34  1  0  0  0  0
 13 22  1  0  0  0  0
 13 25  2  0  0  0  0
 14 17  2  0  0  0  0
 14 35  1  0  0  0  0
 15 18  1  0  0  0  0
 15 36  1  0  0  0  0
 15 37  1  0  0  0  0
 16 38  1  0  0  0  0
 17 39  1  0  0  0  0
 18 22  1  0  0  0  0
 18 23  2  0  0  0  0
 19 20  2  0  0  0  0
 20 26  1  0  0  0  0
 20 27  1  0  0  0  0
 21 40  1  0  0  0  0
 21 41  1  0  0  0  0
 21 42  1  0  0  0  0
 22 24  1  0  0  0  0
 24 43  1  0  0  0  0
 24 44  1  0  0  0  0
 25 45  1  0  0  0  0
 26 46  1  0  0  0  0
M  END
$$$$
