Mpro-x11790_ligand
 OpenBabel04052409413D

 52 55  0  0  0  0  0  0  0  0999 V2000
    9.0317    0.8890   21.1183 O   0  0  0  0  0  0  0  0  0  0  0  0
    8.6526   -0.1172   21.7240 C   0  0  0  0  0  0  0  0  0  0  0  0
    7.5991   -1.0189   21.0694 C   0  0  0  0  0  0  0  0  0  0  0  0
    6.7594   -0.2473   20.0626 C   0  0  0  0  0  0  0  0  0  0  0  0
    5.6695    0.5663   20.4545 C   0  0  0  0  0  0  0  0  0  0  0  0
    5.2777    0.7093   21.8033 C   0  0  0  0  0  0  0  0  0  0  0  0
    4.1871    1.5285   22.1387 C   0  0  0  0  0  0  0  0  0  0  0  0
    3.4798    2.2166   21.1355 C   0  0  0  0  0  0  0  0  0  0  0  0
    3.8680    2.0921   19.7893 C   0  0  0  0  0  0  0  0  0  0  0  0
    4.9565    1.2662   19.4518 C   0  0  0  0  0  0  0  0  0  0  0  0
    5.3601    1.1203   18.1121 C   0  0  0  0  0  0  0  0  0  0  0  0
    6.3999    0.3542   17.7366 N   0  0  0  0  0  0  0  0  0  0  0  0
    7.0825   -0.3063   18.6929 C   0  0  0  0  0  0  0  0  0  0  0  0
    9.1536   -0.4597   22.9350 N   0  0  0  0  0  0  0  0  0  0  0  0
   10.2275    0.3413   23.5263 C   0  0  0  0  0  0  0  0  0  0  0  0
   11.5773    0.0032   22.9640 C   0  0  0  0  0  0  0  0  0  0  0  0
   11.8717   -1.0478   22.1256 C   0  0  0  0  0  0  0  0  0  0  0  0
   13.5556   -1.1363   21.7308 S   0  0  0  0  0  0  0  0  0  0  0  0
   13.8545    0.3029   22.6509 C   0  0  0  0  0  0  0  0  0  0  0  0
   12.7303    0.7736   23.2621 C   0  0  0  0  0  0  0  0  0  0  0  0
    8.7597   -1.6131   23.6627 C   0  0  0  0  0  0  0  0  0  0  0  0
    8.0758   -1.4559   24.8836 C   0  0  0  0  0  0  0  0  0  0  0  0
    7.7936   -2.5723   25.6885 C   0  0  0  0  0  0  0  0  0  0  0  0
    9.1335   -2.9056   23.2386 C   0  0  0  0  0  0  0  0  0  0  0  0
    8.8763   -4.0174   24.0594 C   0  0  0  0  0  0  0  0  0  0  0  0
    8.2186   -3.8656   25.3021 C   0  0  0  0  0  0  0  0  0  0  0  0
    8.0259   -4.9867   26.1326 N   0  0  0  0  0  0  0  0  0  0  0  0
    9.1865   -5.8501   26.2850 C   0  0  0  0  0  0  0  0  0  0  0  0
    7.1098   -4.8858   27.2609 C   0  0  0  0  0  0  0  0  0  0  0  0
    6.9450   -1.4966   21.7977 H   0  0  0  0  0  0  0  0  0  0  0  0
    8.1389   -1.8184   20.5741 H   0  0  0  0  0  0  0  0  0  0  0  0
    5.7960    0.1990   22.5996 H   0  0  0  0  0  0  0  0  0  0  0  0
    3.8897    1.6190   23.1710 H   0  0  0  0  0  0  0  0  0  0  0  0
    2.6404    2.8425   21.3985 H   0  0  0  0  0  0  0  0  0  0  0  0
    3.3291    2.6300   19.0210 H   0  0  0  0  0  0  0  0  0  0  0  0
    4.8559    1.6513   17.3207 H   0  0  0  0  0  0  0  0  0  0  0  0
    7.9233   -0.8918   18.3515 H   0  0  0  0  0  0  0  0  0  0  0  0
   10.2467    0.1895   24.6065 H   0  0  0  0  0  0  0  0  0  0  0  0
   10.0230    1.4057   23.4036 H   0  0  0  0  0  0  0  0  0  0  0  0
   11.2101   -1.7880   21.7108 H   0  0  0  0  0  0  0  0  0  0  0  0
   14.8274    0.7560   22.6463 H   0  0  0  0  0  0  0  0  0  0  0  0
   12.6862    1.6578   23.8778 H   0  0  0  0  0  0  0  0  0  0  0  0
    7.7957   -0.4733   25.2281 H   0  0  0  0  0  0  0  0  0  0  0  0
    7.2925   -2.4044   26.6294 H   0  0  0  0  0  0  0  0  0  0  0  0
    9.6425   -3.0595   22.3008 H   0  0  0  0  0  0  0  0  0  0  0  0
    9.1934   -4.9931   23.7230 H   0  0  0  0  0  0  0  0  0  0  0  0
    9.0685   -6.4803   27.1627 H   0  0  0  0  0  0  0  0  0  0  0  0
    9.3115   -6.4921   25.4157 H   0  0  0  0  0  0  0  0  0  0  0  0
   10.0977   -5.2667   26.4152 H   0  0  0  0  0  0  0  0  0  0  0  0
    6.8921   -5.8762   27.6623 H   0  0  0  0  0  0  0  0  0  0  0  0
    7.5472   -4.2864   28.0596 H   0  0  0  0  0  0  0  0  0  0  0  0
    6.1624   -4.4373   26.9599 H   0  0  0  0  0  0  0  0  0  0  0  0
  1  2  2  0  0  0  0
  2  3  1  0  0  0  0
  2 14  1  0  0  0  0
  3  4  1  0  0  0  0
  3 30  1  0  0  0  0
  3 31  1  0  0  0  0
  4  5  2  0  0  0  0
  4 13  1  0  0  0  0
  5  6  1  0  0  0  0
  5 10  1  0  0  0  0
  6  7  2  0  0  0  0
  6 32  1  0  0  0  0
  7  8  1  0  0  0  0
  7 33  1  0  0  0  0
  8  9  2  0  0  0  0
  8 34  1  0  0  0  0
  9 10  1  0  0  0  0
  9 35  1  0  0  0  0
 10 11  2  0  0  0  0
 11 12  1  0  0  0  0
 11 36  1  0  0  0  0
 12 13  2  0  0  0  0
 13 37  1  0  0  0  0
 14 15  1  0  0  0  0
 14 21  1  0  0  0  0
 15 16  1  0  0  0  0
 15 38  1  0  0  0  0
 15 39  1  0  0  0  0
 16 17  2  0  0  0  0
 16 20  1  0  0  0  0
 17 18  1  0  0  0  0
 17 40  1  0  0  0  0
 18 19  1  0  0  0  0
 19 20  2  0  0  0  0
 19 41  1  0  0  0  0
 20 42  1  0  0  0  0
 21 22  2  0  0  0  0
 21 24  1  0  0  0  0
 22 23  1  0  0  0  0
 22 43  1  0  0  0  0
 23 26  2  0  0  0  0
 23 44  1  0  0  0  0
 24 25  2  0  0  0  0
 24 45  1  0  0  0  0
 25 26  1  0  0  0  0
 25 46  1  0  0  0  0
 26 27  1  0  0  0  0
 27 28  1  0  0  0  0
 27 29  1  0  0  0  0
 28 47  1  0  0  0  0
 28 48  1  0  0  0  0
 28 49  1  0  0  0  0
 29 50  1  0  0  0  0
 29 51  1  0  0  0  0
 29 52  1  0  0  0  0
M  END
$$$$
